A:IPT2001
  --CCDC--021119    3D                              

 33 33  0  0  0  0  0  0  0  0999 V2000
  -13.4031  -28.6960  -27.4895 C      0
  -12.1629  -28.4994  -26.6369 C      0
  -12.3067  -27.3473  -25.8003 O      0
  -10.9446  -28.3027  -27.5045 C      0
   -9.7652  -28.3037  -26.6688 O      0
  -10.8198  -29.4388  -28.5286 C      0
  -10.6250  -30.6826  -27.8286 O      0
  -12.1629  -29.4797  -29.2585 C      0
  -13.1854  -29.8021  -28.3331 O      0
  -12.3226  -30.7256  -30.1001 C      0
  -11.3031  -30.5638  -31.1193 O      0
  -14.7123  -29.2141  -26.3547 S      0
  -16.2511  -28.7000  -27.2422 C      0
  -17.4284  -28.7280  -26.2809 C      0
  -16.5397  -29.6304  -28.4378 C      0
  -13.3158  -30.7732  -30.5442 H      0
  -12.1460  -31.6227  -29.5087 H      0
  -12.3692  -28.5660  -29.8139 H      0
  -10.4104  -30.5063  -30.6882 H      0
  -16.6682  -30.6512  -28.0807 H      0
  -17.4492  -29.3044  -28.9402 H      0
  -15.7055  -29.5927  -29.1368 H      0
  -17.2402  -28.0420  -25.4564 H      0
  -18.3331  -28.4249  -26.8060 H      0
  -17.5555  -29.7371  -25.8918 H      0
  -16.1218  -27.6834  -27.6107 H      0
  -10.0031  -29.2499  -29.2238 H      0
  -11.4015  -30.8525  -27.2333 H      0
   -9.6989  -29.1716  -26.1909 H      0
  -11.0197  -27.3497  -28.0261 H      0
  -13.6693  -27.7982  -28.0454 H      0
  -12.0170  -29.3787  -26.0112 H      0
  -13.0919  -27.4670  -25.2043 H      0
  1  2  1
  1  9  1
  1 12  1
  2  3  1
  2  4  1
  4  5  1
  4  6  1
  6  7  1
  6  8  1
  8  9  1
  8 10  1
 10 11  1
 12 13  1
 13 14  1
 13 15  1
 10 16  1
 10 17  1
  8 18  1
 11 19  1
 15 20  1
 15 21  1
 15 22  1
 14 23  1
 14 24  1
 14 25  1
 13 26  1
  6 27  1
  7 28  1
  5 29  1
  4 30  1
  1 31  1
  2 32  1
  3 33  1
M  END
$$$$
A:DMS8401
  --CCDC--021119    3D                              

 10  9  0  0  0  0  0  0  0  0999 V2000
   17.8668  -22.5345  -18.5018 S      0
   19.0442  -23.3312  -19.1779 O      0
   18.7007  -21.6121  -17.1746 C      0
   16.9531  -23.7435  -17.5854 C      0
   19.4546  -20.9559  -17.6069 H      0
   17.9687  -21.0159  -16.6317 H      0
   19.1779  -22.3122  -16.4905 H      0
   17.6032  -24.2035  -16.8426 H      0
   16.1142  -23.2620  -17.0852 H      0
   16.5801  -24.5084  -18.2649 H      0
  1  2  2
  1  3  1
  1  4  1
  3  5  1
  3  6  1
  3  7  1
  4  8  1
  4  9  1
  4 10  1
M  END
$$$$
A:DMS8402
  --CCDC--021119    3D                              

 10  9  0  0  0  0  0  0  0  0999 V2000
    0.6880   -9.4808  -40.6095 S      0
    2.2069   -9.0466  -40.2745 O      0
    0.6012   -9.5597  -42.4025 C      0
   -0.3106   -7.8895  -40.4131 C      0
    1.3164  -10.2947  -42.7686 H      0
   -0.4041   -9.8495  -42.7048 H      0
    0.8384   -8.5826  -42.8207 H      0
    0.0611   -7.1394  -41.1096 H      0
   -1.3600   -8.0913  -40.6228 H      0
   -0.2085   -7.5205  -39.3936 H      0
  1  2  2
  1  3  1
  1  4  1
  3  5  1
  3  6  1
  3  7  1
  4  8  1
  4  9  1
  4 10  1
M  END
$$$$
A:DMS8403
  --CCDC--021119    3D                              

 10  9  0  0  0  0  0  0  0  0999 V2000
   11.1153  -17.0808  -37.3447 S      0
   12.0370  -15.9298  -36.6676 O      0
   12.0340  -18.5933  -37.1563 C      0
   11.2142  -16.7334  -39.2055 C      0
   12.2509  -16.7986  -39.5323 H      0
   10.6170  -17.4677  -39.7441 H      0
   10.8315  -15.7344  -39.4091 H      0
   12.2005  -18.7874  -36.0977 H      0
   11.4706  -19.4170  -37.5921 H      0
   12.9932  -18.5010  -37.6636 H      0
  1  2  2
  1  3  1
  1  4  1
  4  5  1
  4  6  1
  4  7  1
  3  8  1
  3  9  1
  3 10  1
M  END
$$$$
A:DMS8404
  --CCDC--021119    3D                              

 10  9  0  0  0  0  0  0  0  0999 V2000
   21.8193  -36.3659  -21.9950 S      0
   20.8716  -36.3180  -23.2674 O      0
   20.7787  -36.6135  -20.7066 C      0
   22.2856  -34.6269  -21.5413 C      0
   20.2417  -37.5502  -20.8486 H      0
   21.3512  -36.6600  -19.7814 H      0
   20.0666  -35.7914  -20.6520 H      0
   21.3858  -34.0576  -21.3131 H      0
   22.9369  -34.6417  -20.6686 H      0
   22.8077  -34.1615  -22.3760 H      0
  1  2  2
  1  3  1
  1  4  1
  3  5  1
  3  6  1
  3  7  1
  4  8  1
  4  9  1
  4 10  1
M  END
$$$$
A:DMS8405
  --CCDC--021119    3D                              

 10  9  0  0  0  0  0  0  0  0999 V2000
   31.9110  -21.7229   -6.8627 S      0
   30.4191  -22.0843   -6.2793 O      0
   32.9865  -22.6873   -6.0071 C      0
   32.2665  -20.1925   -6.1517 C      0
   32.7430  -23.7360   -6.1706 H      0
   34.0013  -22.4924   -6.3508 H      0
   32.9129  -22.4589   -4.9448 H      0
   32.2586  -20.2857   -5.0667 H      0
   33.2499  -19.8593   -6.4802 H      0
   31.5156  -19.4662   -6.4591 H      0
  1  2  2
  1  3  1
  1  4  1
  3  5  1
  3  6  1
  3  7  1
  4  8  1
  4  9  1
  4 10  1
M  END
$$$$
A:DMS8406
  --CCDC--021119    3D                              

 10  9  0  0  0  0  0  0  0  0999 V2000
   38.2192  -33.7095  -12.3193 S      0
   37.2565  -33.7015  -13.3843 O      0
   39.7071  -33.5747  -13.0811 C      0
   38.2561  -35.2319  -11.8047 C      0
   39.7417  -32.6456  -13.6482 H      0
   40.4989  -33.5734  -12.3335 H      0
   39.8468  -34.4175  -13.7564 H      0
   38.5563  -35.8845  -12.6232 H      0
   38.9708  -35.3217  -10.9880 H      0
   37.2663  -35.5208  -11.4544 H      0
  1  2  2
  1  3  1
  1  4  1
  3  5  1
  3  6  1
  3  7  1
  4  8  1
  4  9  1
  4 10  1
M  END
$$$$
A:DMS8407
  --CCDC--021119    3D                              

 10  9  0  0  0  0  0  0  0  0999 V2000
  -21.9261  -15.5465  -34.0700 S      0
  -23.0855  -16.0187  -35.0213 O      0
  -22.7310  -14.5801  -32.7148 C      0
  -20.9774  -14.2097  -34.9365 C      0
  -21.6435  -13.3771  -35.1579 H      0
  -20.1670  -13.8658  -34.2955 H      0
  -20.5646  -14.6012  -35.8651 H      0
  -23.4373  -15.2173  -32.1847 H      0
  -21.9704  -14.2254  -32.0208 H      0
  -23.2593  -13.7284  -33.1407 H      0
  1  2  2
  1  3  1
  1  4  1
  4  5  1
  4  6  1
  4  7  1
  3  8  1
  3  9  1
  3 10  1
M  END
$$$$
A:DMS8408
  --CCDC--021119    3D                              

 10  9  0  0  0  0  0  0  0  0999 V2000
   17.9287  -54.6887  -27.2392 S      0
   18.1065  -55.9315  -26.5063 O      0
   16.4538  -54.8224  -27.9921 C      0
   19.0202  -54.7256  -28.5346 C      0
   15.6748  -54.9568  -27.2431 H      0
   16.2550  -53.9175  -28.5644 H      0
   16.4649  -55.6807  -28.6623 H      0
   18.8020  -55.5835  -29.1688 H      0
   18.9240  -53.8102  -29.1165 H      0
   20.0362  -54.8068  -28.1510 H      0
  1  2  2
  1  3  1
  1  4  1
  3  5  1
  3  6  1
  3  7  1
  4  8  1
  4  9  1
  4 10  1
M  END
$$$$
A:DMS8409
  --CCDC--021119    3D                              

 10  9  0  0  0  0  0  0  0  0999 V2000
   12.8988  -14.1209  -12.7780 S      0
   13.8455  -15.5584  -12.6384 O      0
   13.6618  -12.8750  -11.6851 C      0
   11.3760  -14.3984  -11.9244 C      0
   14.6876  -12.6935  -12.0021 H      0
   13.0948  -11.9469  -11.7413 H      0
   13.6582  -13.2410  -10.6594 H      0
   11.5813  -14.6174  -10.8776 H      0
   10.7535  -13.5076  -11.9935 H      0
   10.8550  -15.2413  -12.3762 H      0
  1  2  2
  1  3  1
  1  4  1
  3  5  1
  3  6  1
  3  7  1
  4  8  1
  4  9  1
  4 10  1
M  END
$$$$
A:DMS8410
  --CCDC--021119    3D                              

 10  9  0  0  0  0  0  0  0  0999 V2000
  -15.0268  -49.5494  -23.1687 S      0
  -15.4243  -50.3551  -21.8913 O      0
  -15.2305  -50.6026  -24.6246 C      0
  -13.2643  -49.6093  -23.2425 C      0
  -16.2697  -50.9191  -24.7011 H      0
  -14.9543  -50.0445  -25.5179 H      0
  -14.5902  -51.4786  -24.5314 H      0
  -12.9389  -50.6463  -23.3113 H      0
  -12.9188  -49.0616  -24.1180 H      0
  -12.8478  -49.1570  -22.3437 H      0
  1  2  2
  1  3  1
  1  4  1
  3  5  1
  3  6  1
  3  7  1
  4  8  1
  4  9  1
  4 10  1
M  END
$$$$
A:DMS8411
  --CCDC--021119    3D                              

 10  9  0  0  0  0  0  0  0  0999 V2000
   -3.5320  -41.4393  -47.3206 S      0
   -4.6285  -40.4839  -46.9626 O      0
   -2.0052  -40.5149  -47.0264 C      0
   -3.5380  -41.5391  -49.0677 C      0
   -1.9570  -40.2171  -45.9800 H      0
   -1.1485  -41.1436  -47.2648 H      0
   -1.9908  -39.6274  -47.6574 H      0
   -3.3544  -40.5516  -49.4883 H      0
   -2.7570  -42.2239  -49.3948 H      0
   -4.5063  -41.9040  -49.4071 H      0
  1  2  2
  1  3  1
  1  4  1
  3  5  1
  3  6  1
  3  7  1
  4  8  1
  4  9  1
  4 10  1
M  END
$$$$
A:DMS8412
  --CCDC--021119    3D                              

 10  9  0  0  0  0  0  0  0  0999 V2000
   27.6530  -24.4453   -1.3103 S      0
   26.3988  -25.4346   -1.4728 O      0
   27.8198  -24.0030    0.4527 C      0
   27.0429  -22.8949   -1.8817 C      0
   27.9809  -24.9060    1.0398 H      0
   28.6675  -23.3313    0.5799 H      0
   26.9105  -23.5080    0.7904 H      0
   26.1958  -22.5900   -1.2689 H      0
   27.8306  -22.1463   -1.8105 H      0
   26.7251  -22.9899   -2.9189 H      0
  1  2  2
  1  3  1
  1  4  1
  3  5  1
  3  6  1
  3  7  1
  4  8  1
  4  9  1
  4 10  1
M  END
$$$$
A:DMS8413
  --CCDC--021119    3D                              

 10  9  0  0  0  0  0  0  0  0999 V2000
  -16.8113  -50.3301  -29.7302 S      0
  -15.5990  -49.2869  -29.3682 O      0
  -17.5103  -50.9241  -28.1048 C      0
  -15.9645  -51.9074  -30.3953 C      0
  -17.8872  -50.0733  -27.5391 H      0
  -18.3234  -51.6236  -28.2932 H      0
  -16.7282  -51.4220  -27.5336 H      0
  -15.3076  -52.3172  -29.6295 H      0
  -16.7229  -52.6444  -30.6554 H      0
  -15.3802  -51.6600  -31.2804 H      0
  1  2  2
  1  3  1
  1  4  1
  3  5  1
  3  6  1
  3  7  1
  4  8  1
  4  9  1
  4 10  1
M  END
$$$$
A:DMS8414
  --CCDC--021119    3D                              

 10  9  0  0  0  0  0  0  0  0999 V2000
    5.5472  -54.8404  -35.7363 S      0
    6.2142  -55.5951  -34.7820 O      0
    4.0303  -55.6331  -35.9716 C      0
    6.3161  -55.2238  -37.2869 C      0
    3.4837  -55.6577  -35.0301 H      0
    3.4485  -55.0901  -36.7150 H      0
    4.2026  -56.6510  -36.3181 H      0
    6.2165  -56.2894  -37.4879 H      0
    5.8325  -54.6577  -38.0816 H      0
    7.3717  -54.9596  -37.2437 H      0
  1  2  2
  1  3  1
  1  4  1
  3  5  1
  3  6  1
  3  7  1
  4  8  1
  4  9  1
  4 10  1
M  END
$$$$
A:DMS8416
  --CCDC--021119    3D                              

 10  9  0  0  0  0  0  0  0  0999 V2000
   34.3376  -38.8377    6.2165 S      0
   33.3270  -37.6797    6.0071 O      0
   35.0466  -38.8906    5.0328 C      0
   33.3940  -40.4440    6.1576 C      0
   32.9048  -40.5423    5.1897 H      0
   34.0826  -41.2751    6.3025 H      0
   32.6431  -40.4530    6.9464 H      0
   35.5472  -37.9379    4.8666 H      0
   35.7888  -39.6856    5.0894 H      0
   34.3631  -39.0902    4.2089 H      0
  1  2  2
  1  3  1
  1  4  1
  4  5  1
  4  6  1
  4  7  1
  3  8  1
  3  9  1
  3 10  1
M  END
$$$$
A:DMS8417
  --CCDC--021119    3D                              

 10  9  0  0  0  0  0  0  0  0999 V2000
   16.7274   -8.1491  -13.4062 S      0
   17.1798   -8.6003  -14.8222 O      0
   16.2471   -6.4380  -13.5129 C      0
   18.1305   -8.1281  -12.4559 C      0
   15.4284   -6.3344  -14.2235 H      0
   15.9235   -6.0900  -12.5330 H      0
   17.0956   -5.8430  -13.8475 H      0
   18.8475   -7.4283  -12.8826 H      0
   17.8783   -7.8172  -11.4431 H      0
   18.5672   -9.1254  -12.4313 H      0
  1  2  2
  1  3  1
  1  4  1
  3  5  1
  3  6  1
  3  7  1
  4  8  1
  4  9  1
  4 10  1
M  END
$$$$
A:DMS8420
  --CCDC--021119    3D                              

 10  9  0  0  0  0  0  0  0  0999 V2000
  -12.3286  -30.3103   -0.4627 S      0
  -12.0930  -30.6457    1.0251 O      0
  -13.3262  -28.8448   -0.4557 C      0
  -13.6268  -31.4523   -1.0141 C      0
  -14.5266  -31.2922   -0.4220 H      0
  -13.8469  -31.2714   -2.0652 H      0
  -13.2858  -32.4786   -0.8861 H      0
  -12.7926  -28.0448    0.0554 H      0
  -13.5362  -28.5437   -1.4810 H      0
  -14.2626  -29.0456    0.0627 H      0
  1  2  2
  1  3  1
  1  4  1
  4  5  1
  4  6  1
  4  7  1
  3  8  1
  3  9  1
  3 10  1
M  END
$$$$
A:DMS8421
  --CCDC--021119    3D                              

 10  9  0  0  0  0  0  0  0  0999 V2000
   -3.1875  -58.8366  -34.7022 S      0
   -2.4535  -59.9527  -35.5029 O      0
   -5.0000  -59.2179  -34.8029 C      0
   -3.2025  -57.4709  -35.6724 C      0
   -5.1896  -60.1976  -34.3668 H      0
   -5.5609  -58.4621  -34.2552 H      0
   -5.3135  -59.2180  -35.8458 H      0
   -3.7294  -57.6903  -36.5999 H      0
   -3.7086  -56.6603  -35.1504 H      0
   -2.1791  -57.1745  -35.8978 H      0
  1  2  2
  1  3  1
  1  4  1
  3  5  1
  3  6  1
  3  7  1
  4  8  1
  4  9  1
  4 10  1
M  END
$$$$
A:DMS8425
  --CCDC--021119    3D                              

 10  9  0  0  0  0  0  0  0  0999 V2000
   21.5446   -9.9380  -45.5017 S      0
   20.3134   -9.8871  -44.5883 O      0
   22.2656  -11.6651  -45.2744 C      0
   22.7899   -8.8559  -44.7459 C      0
   23.0297   -9.2201  -43.7480 H      0
   23.6904   -8.8556  -45.3583 H      0
   22.3969   -7.8426  -44.6777 H      0
   21.5243  -12.4088  -45.5629 H      0
   23.1511  -11.7739  -45.8989 H      0
   22.5379  -11.8102  -44.2300 H      0
  1  2  2
  1  3  1
  1  4  1
  4  5  1
  4  6  1
  4  7  1
  3  8  1
  3  9  1
  3 10  1
M  END
$$$$
A:DMS8501
  --CCDC--021119    3D                              

 10  9  0  0  0  0  0  0  0  0999 V2000
   23.1025  -39.4107  -25.6048 S      0
   23.6996  -40.0477  -26.9530 O      0
   23.6577  -37.6837  -25.6477 C      0
   24.1090  -39.8700  -24.3683 C      0
   23.2640  -37.1979  -26.5393 H      0
   23.2962  -37.1641  -24.7616 H      0
   24.7460  -37.6527  -25.6680 H      0
   25.1136  -39.4957  -24.5599 H      0
   23.7415  -39.4588  -23.4293 H      0
   24.1327  -40.9568  -24.3041 H      0
  1  2  2
  1  3  1
  1  4  1
  3  5  1
  3  6  1
  3  7  1
  4  8  1
  4  9  1
  4 10  1
M  END
$$$$
A:DMS8502
  --CCDC--021119    3D                              

 10  9  0  0  0  0  0  0  0  0999 V2000
   13.7976  -61.0608  -27.7937 S      0
   13.1105  -61.6258  -26.6359 O      0
   12.4085  -60.6675  -29.1269 C      0
   14.8571  -62.4315  -28.4578 C      0
   11.6968  -59.9561  -28.7106 H      0
   12.8696  -60.2411  -30.0166 H      0
   11.8894  -61.5872  -29.3924 H      0
   14.2266  -63.2731  -28.7408 H      0
   15.4034  -62.0775  -29.3308 H      0
   15.5631  -62.7483  -27.6916 H      0
  1  2  2
  1  3  1
  1  4  1
  3  5  1
  3  6  1
  3  7  1
  4  8  1
  4  9  1
  4 10  1
M  END
$$$$
A:DMS8503
  --CCDC--021119    3D                              

 10  9  0  0  0  0  0  0  0  0999 V2000
   -0.3755   -1.8458  -44.1555 S      0
    0.5293   -0.8985  -44.9523 O      0
    0.2297   -3.4581  -44.4826 C      0
   -2.0501   -2.0775  -45.1557 C      0
    1.2661   -3.5300  -44.1561 H      0
   -0.3722   -4.1881  -43.9434 H      0
    0.1711   -3.6579  -45.5515 H      0
   -1.8325   -2.5019  -46.1347 H      0
   -2.7103   -2.7482  -44.6078 H      0
   -2.5359   -1.1107  -45.2791 H      0
  1  2  2
  1  3  1
  1  4  1
  3  5  1
  3  6  1
  3  7  1
  4  8  1
  4  9  1
  4 10  1
M  END
$$$$
A:DMS8504
  --CCDC--021119    3D                              

 10  9  0  0  0  0  0  0  0  0999 V2000
   30.4171  -50.4659  -15.9780 S      0
   29.7840  -49.2240  -16.4835 O      0
   31.3109  -49.9438  -14.6577 C      0
   31.6684  -50.9161  -17.2663 C      0
   30.6449  -49.4910  -13.9246 H      0
   31.8230  -50.7928  -14.2073 H      0
   32.0450  -49.2086  -14.9841 H      0
   32.3906  -50.1076  -17.3691 H      0
   32.1841  -51.8278  -16.9685 H      0
   31.1663  -51.0777  -18.2191 H      0
  1  2  2
  1  3  1
  1  4  1
  3  5  1
  3  6  1
  3  7  1
  4  8  1
  4  9  1
  4 10  1
M  END
$$$$
A:DMS8602
  --CCDC--021119    3D                              

 10  9  0  0  0  0  0  0  0  0999 V2000
   37.4862  -20.1945  -17.0629 S      0
   36.9150  -21.3635  -16.2452 O      0
   39.0939  -19.8671  -16.4147 C      0
   36.6683  -18.6651  -16.4117 C      0
   36.8981  -18.5533  -15.3531 H      0
   37.0359  -17.7969  -16.9567 H      0
   35.5903  -18.7462  -16.5426 H      0
   39.7153  -20.7552  -16.5195 H      0
   39.5452  -19.0416  -16.9631 H      0
   39.0137  -19.6024  -15.3614 H      0
  1  2  2
  1  3  1
  1  4  1
  4  5  1
  4  6  1
  4  7  1
  3  8  1
  3  9  1
  3 10  1
M  END
$$$$
B:IPT2001
  --CCDC--021119    3D                              

 33 33  0  0  0  0  0  0  0  0999 V2000
   -9.8671   21.3426  -29.5517 C      0
   -9.9829   21.2717  -28.0280 C      0
   -9.2679   20.1097  -27.5892 O      0
  -11.4219   21.0541  -27.6879 C      0
  -11.4778   21.1599  -26.2959 O      0
  -12.3316   22.1322  -28.3252 C      0
  -12.0380   23.4130  -27.7558 O      0
  -12.1099   22.2021  -29.8359 C      0
  -10.6919   22.4058  -30.0413 O      0
  -12.8139   23.1725  -30.7723 C      0
  -14.1940   23.1784  -30.4462 O      0
   -8.1645   21.8397  -29.8848 S      0
   -7.8170   21.3965  -31.6119 C      0
   -6.3311   21.4334  -31.8642 C      0
   -8.6738   22.2420  -32.5492 C      0
  -10.1109   20.3909  -30.0216 H      0
   -9.5970   22.1754  -27.5586 H      0
   -8.3155   20.1854  -27.8596 H      0
  -11.7374   20.0606  -28.0032 H      0
  -11.1661   22.0613  -26.0197 H      0
  -13.3733   21.8834  -28.1277 H      0
  -11.0873   23.6419  -27.9283 H      0
  -12.3281   21.2057  -30.2174 H      0
  -12.6802   22.8518  -31.8044 H      0
  -12.4008   24.1721  -30.6462 H      0
  -14.3101   23.4682  -29.5035 H      0
   -8.1334   20.3626  -31.7420 H      0
   -5.8332   20.7239  -31.2049 H      0
   -6.1322   21.1666  -32.9011 H      0
   -5.9545   22.4364  -31.6688 H      0
   -8.4466   23.2961  -32.3969 H      0
   -8.4592   21.9700  -33.5816 H      0
   -9.7271   22.0636  -32.3382 H      0
  1  2  1
  1  9  1
  1 12  1
  2  3  1
  2  4  1
  4  5  1
  4  6  1
  6  7  1
  6  8  1
  8  9  1
  8 10  1
 10 11  1
 12 13  1
 13 14  1
 13 15  1
  1 16  1
  2 17  1
  3 18  1
  4 19  1
  5 20  1
  6 21  1
  7 22  1
  8 23  1
 10 24  1
 10 25  1
 11 26  1
 13 27  1
 14 28  1
 14 29  1
 14 30  1
 15 31  1
 15 32  1
 15 33  1
M  END
$$$$
B:DMS8401
  --CCDC--021119    3D                              

 10  9  0  0  0  0  0  0  0  0999 V2000
  -23.8963   16.0197   -0.1456 S      0
  -25.0757   16.9022    0.3321 O      0
  -23.4170   15.1212    1.2714 C      0
  -22.4554   17.1048   -0.1665 C      0
  -24.2558   14.5216    1.6220 H      0
  -22.5827   14.4674    1.0217 H      0
  -23.1134   15.8139    2.0549 H      0
  -22.2794   17.4939    0.8352 H      0
  -21.5827   16.5430   -0.4963 H      0
  -22.6342   17.9325   -0.8512 H      0
  1  2  2
  1  3  1
  1  4  1
  3  5  1
  3  6  1
  3  7  1
  4  8  1
  4  9  1
  4 10  1
M  END
$$$$
B:DMS8402
  --CCDC--021119    3D                              

 10  9  0  0  0  0  0  0  0  0999 V2000
  -28.9991    2.0515  -27.2243 S      0
  -29.6692    1.9177  -25.8242 O      0
  -30.3433    2.1264  -28.3760 C      0
  -28.1653    0.3314  -27.6381 C      0
  -30.9694    2.9876  -28.1477 H      0
  -29.9500    2.2213  -29.3871 H      0
  -30.9365    1.2162  -28.3012 H      0
  -28.9267   -0.4471  -27.6520 H      0
  -27.6846    0.3864  -28.6137 H      0
  -27.4204    0.0972  -26.8791 H      0
  1  2  2
  1  3  1
  1  4  1
  3  5  1
  3  6  1
  3  7  1
  4  8  1
  4  9  1
  4 10  1
M  END
$$$$
B:DMS8403
  --CCDC--021119    3D                              

 10  9  0  0  0  0  0  0  0  0999 V2000
  -33.5987   10.0149  -17.5465 S      0
  -33.4868    9.0965  -16.3818 O      0
  -34.3486   11.5463  -16.9383 C      0
  -34.8779    9.3301  -18.6395 C      0
  -33.7150   11.9787  -16.1653 H      0
  -34.4506   12.2523  -17.7611 H      0
  -35.3314   11.3290  -16.5225 H      0
  -35.8229    9.2734  -18.1012 H      0
  -34.9940    9.9738  -19.5101 H      0
  -34.5836    8.3325  -18.9622 H      0
  1  2  2
  1  3  1
  1  4  1
  3  5  1
  3  6  1
  3  7  1
  4  8  1
  4  9  1
  4 10  1
M  END
$$$$
B:DMS8404
  --CCDC--021119    3D                              

 10  9  0  0  0  0  0  0  0  0999 V2000
  -29.4715   29.9349    0.1446 S      0
  -29.3147   29.9309   -1.2983 O      0
  -28.1513   30.9901    0.8077 C      0
  -28.9432   28.2698    0.7060 C      0
  -28.2533   31.9962    0.4036 H      0
  -28.2261   31.0258    1.8936 H      0
  -27.1827   30.5813    0.5238 H      0
  -27.9056   28.1028    0.4209 H      0
  -29.0370   28.2051    1.7890 H      0
  -29.5736   27.5131    0.2413 H      0
  1  2  2
  1  3  1
  1  4  1
  3  5  1
  3  6  1
  3  7  1
  4  8  1
  4  9  1
  4 10  1
M  END
$$$$
B:DMS8405
  --CCDC--021119    3D                              

 10  9  0  0  0  0  0  0  0  0999 V2000
  -24.6672   16.0257   18.2585 S      0
  -23.2882   16.2123   17.3950 O      0
  -24.5674   17.1098   19.7633 C      0
  -24.4026   14.3176   19.1141 C      0
  -23.5144   14.3602   19.7428 H      0
  -25.2706   14.0805   19.7276 H      0
  -24.2734   13.5475   18.3550 H      0
  -24.4581   18.1487   19.4556 H      0
  -25.4772   16.9992   20.3514 H      0
  -23.7083   16.8172   20.3652 H      0
  1  2  2
  1  3  1
  1  4  1
  4  5  1
  4  6  1
  4  7  1
  3  8  1
  3  9  1
  3 10  1
M  END
$$$$
B:DMS8408
  --CCDC--021119    3D                              

 10  9  0  0  0  0  0  0  0  0999 V2000
  -30.2953   47.8923   -7.7023 S      0
  -30.0077   48.9604   -6.8188 O      0
  -29.6662   48.3724   -9.4434 C      0
  -32.0718   47.9032   -7.9865 C      0
  -28.5922   48.5484   -9.4055 H      0
  -29.8772   47.5636  -10.1414 H      0
  -30.1710   49.2787   -9.7746 H      0
  -32.3629   48.8552   -8.4279 H      0
  -32.3360   47.0929   -8.6643 H      0
  -32.5918   47.7682   -7.0392 H      0
  1  2  2
  1  3  1
  1  4  1
  3  5  1
  3  6  1
  3  7  1
  4  8  1
  4  9  1
  4 10  1
M  END
$$$$
B:DMS8409
  --CCDC--021119    3D                              

 10  9  0  0  0  0  0  0  0  0999 V2000
  -16.2411    7.6120    0.2862 S      0
  -16.9871    9.0865    0.8995 O      0
  -15.7898    6.6247    1.7221 C      0
  -14.4766    7.9864   -0.2114 C      0
  -16.6836    6.3951    2.3003 H      0
  -15.3223    5.6978    1.3930 H      0
  -15.0903    7.1839    2.3418 H      0
  -13.9235    8.3456    0.6552 H      0
  -14.0068    7.0806   -0.5920 H      0
  -14.4726    8.7508   -0.9870 H      0
  1  2  2
  1  3  1
  1  4  1
  3  5  1
  3  6  1
  3  7  1
  4  8  1
  4  9  1
  4 10  1
M  END
$$$$
B:DMS8410
  --CCDC--021119    3D                              

 10  9  0  0  0  0  0  0  0  0999 V2000
   -6.1793   42.2938  -28.7739 S      0
   -4.9520   42.7990  -28.1576 O      0
   -6.8583   43.6365  -29.8339 C      0
   -7.2678   42.1231  -27.5394 C      0
   -6.1288   43.8995  -30.5984 H      0
   -7.7758   43.2941  -30.3102 H      0
   -7.0722   44.5104  -29.2203 H      0
   -7.4331   43.0893  -27.0650 H      0
   -8.2100   41.7473  -27.9355 H      0
   -6.8766   41.4204  -26.8051 H      0
  1  2  2
  1  3  1
  1  4  1
  3  5  1
  3  6  1
  3  7  1
  4  8  1
  4  9  1
  4 10  1
M  END
$$$$
B:DMS8411
  --CCDC--021119    3D                              

 10  9  0  0  0  0  0  0  0  0999 V2000
  -31.4477   33.7794  -35.7981 S      0
  -30.3962   32.8110  -36.4951 O      0
  -32.2566   32.8360  -34.4050 C      0
  -32.8018   33.9511  -36.9947 C      0
  -31.4976   32.5243  -33.6889 H      0
  -32.9839   33.4758  -33.9076 H      0
  -32.7600   31.9574  -34.8058 H      0
  -33.2328   32.9719  -37.1981 H      0
  -33.5681   34.6068  -36.5841 H      0
  -32.4168   34.3775  -37.9198 H      0
  1  2  2
  1  3  1
  1  4  1
  3  5  1
  3  6  1
  3  7  1
  4  8  1
  4  9  1
  4 10  1
M  END
$$$$
B:DMS8412
  --CCDC--021119    3D                              

 10  9  0  0  0  0  0  0  0  0999 V2000
  -17.6372   18.6731   18.9167 S      0
  -16.8632   19.3879   17.7869 O      0
  -16.4508   18.4675   20.3187 C      0
  -17.7480   16.9331   18.3702 C      0
  -16.1017   19.4459   20.6453 H      0
  -16.9502   17.9654   21.1461 H      0
  -15.6015   17.8699   19.9909 H      0
  -16.7452   16.5270   18.2462 H      0
  -18.2853   16.3514   19.1177 H      0
  -18.2795   16.8839   17.4210 H      0
  1  2  2
  1  3  1
  1  4  1
  3  5  1
  3  6  1
  3  7  1
  4  8  1
  4  9  1
  4 10  1
M  END
$$$$
B:DMS8413
  --CCDC--021119    3D                              

 10  9  0  0  0  0  0  0  0  0999 V2000
   -9.0453   42.8519  -34.2275 S      0
   -9.4207   41.8216  -33.0807 O      0
   -7.4385   43.5327  -33.8266 C      0
  -10.0918   44.3114  -34.0141 C      0
   -6.7051   42.7290  -33.7798 H      0
   -7.1453   44.2474  -34.5942 H      0
   -7.4878   44.0358  -32.8621 H      0
   -9.9079   44.7498  -33.0344 H      0
   -9.8589   45.0413  -34.7880 H      0
  -11.1387   44.0218  -34.0915 H      0
  1  2  2
  1  3  1
  1  4  1
  3  5  1
  3  6  1
  3  7  1
  4  8  1
  4  9  1
  4 10  1
M  END
$$$$
B:DMS8414
  --CCDC--021119    3D                              

 10  9  0  0  0  0  0  0  0  0999 V2000
  -28.3580   48.1838  -22.1635 S      0
  -29.1479   47.7775  -20.8831 O      0
  -29.1619   49.5864  -22.8396 C      0
  -28.6466   46.9109  -23.3751 C      0
  -29.1547   50.3954  -22.1107 H      0
  -28.6397   49.9049  -23.7406 H      0
  -30.1909   49.3305  -23.0878 H      0
  -29.7132   46.8444  -23.5847 H      0
  -28.1111   47.1540  -24.2916 H      0
  -28.2921   45.9560  -22.9899 H      0
  1  2  2
  1  3  1
  1  4  1
  3  5  1
  3  6  1
  3  7  1
  4  8  1
  4  9  1
  4 10  1
M  END
$$$$
B:DMS8416
  --CCDC--021119    3D                              

 10  9  0  0  0  0  0  0  0  0999 V2000
  -16.7165   33.2822   27.7338 S      0
  -18.1944   33.7903   27.8076 O      0
  -16.1323   33.1854   29.3732 C      0
  -15.7568   34.6628   27.2971 C      0
  -16.7514   32.4906   29.9387 H      0
  -15.1015   32.8340   29.3711 H      0
  -16.1789   34.1710   29.8340 H      0
  -15.8692   35.4373   28.0543 H      0
  -14.7099   34.3705   27.2294 H      0
  -16.0896   35.0462   26.3336 H      0
  1  2  2
  1  3  1
  1  4  1
  3  5  1
  3  6  1
  3  7  1
  4  8  1
  4  9  1
  4 10  1
M  END
$$$$
B:DMS8417
  --CCDC--021119    3D                              

 10  9  0  0  0  0  0  0  0  0999 V2000
  -19.1630    1.9577    2.8041 S      0
  -20.3943    2.6215    2.2517 O      0
  -19.1430    0.3224    2.1928 C      0
  -19.4656    1.7680    4.4604 C      0
  -19.1129    0.3421    1.1044 H      0
  -18.2630   -0.1957    2.5710 H      0
  -20.0407   -0.1990    2.5218 H      0
  -20.3505    1.1487    4.5992 H      0
  -18.6095    1.2889    4.9333 H      0
  -19.6311    2.7444    4.9133 H      0
  1  2  2
  1  3  1
  1  4  1
  3  5  1
  3  6  1
  3  7  1
  4  8  1
  4  9  1
  4 10  1
M  END
$$$$
B:DMS8421
  --CCDC--021119    3D                              

 10  9  0  0  0  0  0  0  0  0999 V2000
  -22.4683   51.4302  -27.4875 S      0
  -21.0473   52.0931  -27.8545 O      0
  -23.1454   50.8362  -28.9265 C      0
  -23.6776   52.7610  -27.3529 C      0
  -22.4800   50.0913  -29.3603 H      0
  -24.1107   50.3799  -28.7122 H      0
  -23.2798   51.6565  -29.6300 H      0
  -23.7414   53.2909  -28.3021 H      0
  -24.6519   52.3424  -27.1047 H      0
  -23.3700   53.4533  -26.5706 H      0
  1  2  2
  1  3  1
  1  4  1
  3  5  1
  3  6  1
  3  7  1
  4  8  1
  4  9  1
  4 10  1
M  END
$$$$
B:DMS8423
  --CCDC--021119    3D                              

 10  9  0  0  0  0  0  0  0  0999 V2000
  -31.9540   29.4148  -43.8215 S      0
  -31.9650   29.0694  -42.3626 O      0
  -31.8222   31.1578  -43.8973 C      0
  -33.6576   29.2471  -44.3629 C      0
  -30.9012   31.4738  -43.4094 H      0
  -31.8089   31.4759  -44.9387 H      0
  -32.6743   31.6087  -43.3908 H      0
  -34.2877   29.9308  -43.7960 H      0
  -33.7265   29.4848  -45.4234 H      0
  -33.9919   28.2239  -44.1979 H      0
  1  2  2
  1  3  1
  1  4  1
  3  5  1
  3  6  1
  3  7  1
  4  8  1
  4  9  1
  4 10  1
M  END
$$$$
B:DMS8425
  --CCDC--021119    3D                              

 10  9  0  0  0  0  0  0  0  0999 V2000
  -46.7202    2.9250  -14.7664 S      0
  -45.1684    2.7753  -14.3476 O      0
  -47.2434    4.5013  -14.1780 C      0
  -47.5969    1.8179  -13.5867 C      0
  -46.6379    5.2802  -14.6391 H      0
  -48.2904    4.6555  -14.4352 H      0
  -47.1255    4.5425  -13.0962 H      0
  -47.4099    2.1525  -12.5674 H      0
  -48.6668    1.8475  -13.7879 H      0
  -47.2330    0.7985  -13.7067 H      0
  1  2  2
  1  3  1
  1  4  1
  3  5  1
  3  6  1
  3  7  1
  4  8  1
  4  9  1
  4 10  1
M  END
$$$$
B:DMS8502
  --CCDC--021119    3D                              

 10  9  0  0  0  0  0  0  0  0999 V2000
  -28.2492   54.2175  -10.6470 S      0
  -26.7633   54.7426  -10.3229 O      0
  -28.3650   54.1087  -12.4958 C      0
  -29.3676   55.5023  -10.1245 C      0
  -29.1508   56.4176  -10.6732 H      0
  -30.3930   55.1940  -10.3234 H      0
  -29.2427   55.6805   -9.0574 H      0
  -27.6135   53.4131  -12.8663 H      0
  -29.3562   53.7560  -12.7773 H      0
  -28.1935   55.0930  -12.9288 H      0
  1  2  2
  1  3  1
  1  4  1
  4  5  1
  4  6  1
  4  7  1
  3  8  1
  3  9  1
  3 10  1
M  END
$$$$
B:DMS8504
  --CCDC--021119    3D                              

 10  9  0  0  0  0  0  0  0  0999 V2000
  -30.4311   44.2974   10.2631 S      0
  -31.8861   44.3483   10.3638 O      0
  -30.0726   44.1287    8.6307 C      0
  -29.9878   42.7920   10.7657 C      0
  -30.4715   44.9803    8.0815 H      0
  -28.9925   44.0853    8.4988 H      0
  -30.5215   43.2110    8.2534 H      0
  -30.4512   42.0439   10.1241 H      0
  -28.9044   42.6956   10.7116 H      0
  -30.3147   42.6415   11.7934 H      0
  1  2  2
  1  3  1
  1  4  1
  3  5  1
  3  6  1
  3  7  1
  4  8  1
  4  9  1
  4 10  1
M  END
$$$$
B:DMS8506
  --CCDC--021119    3D                              

 10  9  0  0  0  0  0  0  0  0999 V2000
   -9.6304   26.0905  -34.2345 S      0
   -9.6214   25.8090  -35.7283 O      0
   -7.8889   25.7790  -33.6202 C      0
  -10.7279   24.9035  -33.5026 C      0
   -7.1976   26.4437  -34.1363 H      0
   -7.8426   25.9680  -32.5488 H      0
   -7.6137   24.7442  -33.8185 H      0
  -10.3630   23.8979  -33.7063 H      0
  -10.7698   25.0633  -32.4262 H      0
  -11.7243   25.0209  -33.9261 H      0
  1  2  2
  1  3  1
  1  4  1
  3  5  1
  3  6  1
  3  7  1
  4  8  1
  4  9  1
  4 10  1
M  END
$$$$
B:DMS8508
  --CCDC--021119    3D                              

 10  9  0  0  0  0  0  0  0  0999 V2000
  -37.0808   26.7883  -47.0434 S      0
  -36.0312   26.1943  -46.0063 O      0
  -38.0524   25.2819  -47.7843 C      0
  -36.1101   27.4102  -48.4803 C      0
  -38.5611   24.7483  -46.9827 H      0
  -38.7864   25.6417  -48.5037 H      0
  -37.3552   24.6098  -48.2824 H      0
  -35.5503   26.5879  -48.9234 H      0
  -36.7882   27.8292  -49.2224 H      0
  -35.4182   28.1812  -48.1446 H      0
  1  2  2
  1  3  1
  1  4  1
  3  5  1
  3  6  1
  3  7  1
  4  8  1
  4  9  1
  4 10  1
M  END
$$$$
B:DMS8601
  --CCDC--021119    3D                              

 10  9  0  0  0  0  0  0  0  0999 V2000
  -33.3310    9.3610   12.4589 S      0
  -33.4019    8.4815   11.3251 O      0
  -32.5681    8.3887   13.8420 C      0
  -35.1215    9.6905   12.9605 C      0
  -35.6053    8.7495   13.2183 H      0
  -35.1405   10.3563   13.8220 H      0
  -35.6513   10.1555   12.1304 H      0
  -31.5739    8.0566   13.5469 H      0
  -32.4928    9.0165   14.7286 H      0
  -33.1897    7.5221   14.0625 H      0
  1  2  2
  1  3  1
  1  4  1
  4  5  1
  4  6  1
  4  7  1
  3  8  1
  3  9  1
  3 10  1
M  END
$$$$
C:IPT2001
  --CCDC--021119    3D                              

 33 33  0  0  0  0  0  0  0  0999 V2000
    9.8811   22.0454   22.7678 C      0
   10.0399   21.9236   21.2541 C      0
    9.3329   20.7097   20.8871 O      0
   11.5098   21.7748   20.8871 C      0
   11.6326   21.6790   19.4631 O      0
   12.4195   22.8191   21.5672 C      0
   12.1529   24.1208   21.0467 O      0
   12.1079   22.8360   23.0570 C      0
   10.6969   23.0686   23.2784 O      0
   12.9078   23.8014   23.9365 C      0
   14.3168   23.8323   23.6084 O      0
    8.2274   22.6843   23.0829 S      0
    7.8919   22.1991   24.7931 C      0
    6.4070   22.4277   25.0155 C      0
    8.8785   22.9159   25.7215 C      0
   10.0541   21.0963   23.2731 H      0
   11.8196   20.8075   21.2797 H      0
    5.8371   21.8175   24.3164 H      0
    6.1458   22.1506   26.0357 H      0
    6.1733   23.4790   24.8537 H      0
    8.7586   23.9932   25.6164 H      0
    8.6813   22.6276   26.7530 H      0
    9.8966   22.6362   25.4547 H      0
   12.8005   23.4936   24.9756 H      0
   12.5005   24.8035   23.8108 H      0
    9.6051   22.7869   20.7524 H      0
   11.2659   22.5007   19.0432 H      0
    8.0777   21.1293   24.8758 H      0
   11.2036   24.3574   21.2171 H      0
   12.3178   21.8339   23.4280 H      0
    8.3778   20.7916   21.1464 H      0
   13.4656   22.5615   21.4084 H      0
   14.4308   24.1201   22.6649 H      0
  1  2  1
  1  9  1
  1 12  1
  2  3  1
  2  4  1
  4  5  1
  4  6  1
  6  7  1
  6  8  1
  8  9  1
  8 10  1
 10 11  1
 12 13  1
 13 14  1
 13 15  1
  1 16  1
  4 17  1
 14 18  1
 14 19  1
 14 20  1
 15 21  1
 15 22  1
 15 23  1
 10 24  1
 10 25  1
  2 26  1
  5 27  1
 13 28  1
  7 29  1
  8 30  1
  3 31  1
  6 32  1
 11 33  1
M  END
$$$$
C:DMS8401
  --CCDC--021119    3D                              

 10  9  0  0  0  0  0  0  0  0999 V2000
   23.7535   15.4946   -6.4398 S      0
   25.0267   16.3201   -6.9803 O      0
   23.2063   14.6600   -7.8140 C      0
   22.2846   16.6975   -6.4747 C      0
   23.9970   14.0073   -8.1811 H      0
   22.3344   14.0622   -7.5523 H      0
   22.9366   15.3752   -8.5896 H      0
   22.1223   17.0427   -7.4947 H      0
   21.3905   16.1891   -6.1170 H      0
   22.4986   17.5505   -5.8325 H      0
  1  2  2
  1  3  1
  1  4  1
  3  5  1
  3  6  1
  3  7  1
  4  8  1
  4  9  1
  4 10  1
M  END
$$$$
C:DMS8402
  --CCDC--021119    3D                              

 10  9  0  0  0  0  0  0  0  0999 V2000
   28.6237    2.4229   21.0816 S      0
   29.3606    2.0495   19.7842 O      0
   29.9338    2.7224   22.2752 C      0
   27.8378    0.7417   21.7786 C      0
   30.5687    3.5334   21.9215 H      0
   29.4958    2.9959   23.2340 H      0
   30.5307    1.8192   22.3933 H      0
   28.6324    0.0230   21.9735 H      0
   27.3003    0.9482   22.7030 H      0
   27.1489    0.3304   21.0423 H      0
  1  2  2
  1  3  1
  1  4  1
  3  5  1
  3  6  1
  3  7  1
  4  8  1
  4  9  1
  4 10  1
M  END
$$$$
C:DMS8403
  --CCDC--021119    3D                              

 10  9  0  0  0  0  0  0  0  0999 V2000
   33.3510    9.8941   11.1655 S      0
   33.1902    8.9407    9.9470 O      0
   33.7714   11.4564   10.5842 C      0
   34.8229    9.3141   12.0291 C      0
   32.9844   11.8230    9.9268 H      0
   33.8881   12.1377   11.4257 H      0
   34.7081   11.3983   10.0317 H      0
   35.6813    9.3702   11.3613 H      0
   35.0013    9.9393   12.9027 H      0
   34.6756    8.2824   12.3450 H      0
  1  2  2
  1  3  1
  1  4  1
  3  5  1
  3  6  1
  3  7  1
  4  8  1
  4  9  1
  4 10  1
M  END
$$$$
C:DMS8404
  --CCDC--021119    3D                              

 10  9  0  0  0  0  0  0  0  0999 V2000
   29.4625   29.3938   -7.1558 S      0
   29.3187   29.2970   -5.5713 O      0
   28.0325   30.3043   -7.6614 C      0
   29.4345   27.6009   -7.7571 C      0
   28.0406   31.2851   -7.1882 H      0
   28.0420   30.4233   -8.7438 H      0
   27.1347   29.7649   -7.3634 H      0
   28.4944   27.1349   -7.4658 H      0
   29.5291   27.5803   -8.8418 H      0
   30.2641   27.0551   -7.3100 H      0
  1  2  2
  1  3  1
  1  4  1
  3  5  1
  3  6  1
  3  7  1
  4  8  1
  4  9  1
  4 10  1
M  END
$$$$
C:DMS8405
  --CCDC--021119    3D                              

 10  9  0  0  0  0  0  0  0  0999 V2000
   24.6613   14.8946  -24.8141 S      0
   23.1634   14.9864  -24.1649 O      0
   24.6722   16.0506  -26.2829 C      0
   24.6752   13.3442  -25.4682 C      0
   24.4535   17.0638  -25.9491 H      0
   25.6531   16.0279  -26.7554 H      0
   23.9165   15.7336  -27.0000 H      0
   23.8847   13.2570  -26.2121 H      0
   25.6392   13.1577  -25.9393 H      0
   24.5108   12.6147  -24.6766 H      0
  1  2  2
  1  3  1
  1  4  1
  3  5  1
  3  6  1
  3  7  1
  4  8  1
  4  9  1
  4 10  1
M  END
$$$$
C:DMS8407
  --CCDC--021119    3D                              

 10  9  0  0  0  0  0  0  0  0999 V2000
    9.2100    9.6206   34.1487 S      0
    9.0602    9.3660   35.7004 O      0
    7.5653    9.7154   33.4926 C      0
    9.6654    8.0383   33.4098 C      0
    7.0302   10.5342   33.9713 H      0
    7.6124    9.8911   32.4189 H      0
    7.0434    8.7792   33.6846 H      0
    8.8845    7.3061   33.6100 H      0
    9.7816    8.1601   32.3339 H      0
   10.6048    7.6939   33.8397 H      0
  1  2  2
  1  3  1
  1  4  1
  3  5  1
  3  6  1
  3  7  1
  4  8  1
  4  9  1
  4 10  1
M  END
$$$$
C:DMS8408
  --CCDC--021119    3D                              

 10  9  0  0  0  0  0  0  0  0999 V2000
   30.7347   47.5029   -0.2284 S      0
   30.4162   48.5631   -1.2764 O      0
   30.2034   48.0869    1.3562 C      0
   32.5202   47.3861   -0.2842 C      0
   29.1306   48.2722    1.3337 H      0
   30.4265   47.3364    2.1131 H      0
   30.7265   49.0114    1.5964 H      0
   32.9551   48.3543   -0.0406 H      0
   32.8582   46.6443    0.4379 H      0
   32.8334   47.0887   -1.2839 H      0
  1  2  2
  1  3  1
  1  4  1
  3  5  1
  3  6  1
  3  7  1
  4  8  1
  4  9  1
  4 10  1
M  END
$$$$
C:DMS8409
  --CCDC--021119    3D                              

 10  9  0  0  0  0  0  0  0  0999 V2000
   15.9805    7.2157   -6.4678 S      0
   16.5227    8.5923   -7.3682 O      0
   15.6639    5.9898   -7.6066 C      0
   14.2689    7.5112   -5.9173 C      0
   16.5755    5.7613   -8.1568 H      0
   15.3176    5.0956   -7.0905 H      0
   14.8962    6.3286   -8.3007 H      0
   13.6288    7.6595   -6.7858 H      0
   13.9167    6.6513   -5.3494 H      0
   14.2382    8.3993   -5.2878 H      0
  1  2  2
  1  3  1
  1  4  1
  3  5  1
  3  6  1
  3  7  1
  4  8  1
  4  9  1
  4 10  1
M  END
$$$$
C:DMS8410
  --CCDC--021119    3D                              

 10  9  0  0  0  0  0  0  0  0999 V2000
    6.0205   43.3011   21.1284 S      0
    5.3844   44.3014   20.2409 O      0
    6.8164   44.2814   22.4298 C      0
    7.4136   42.7171   20.2758 C      0
    8.0889   43.5468   20.0724 H      0
    7.9257   41.9729   20.8839 H      0
    7.1007   42.2649   19.3359 H      0
    6.0634   44.8673   22.9548 H      0
    7.3136   43.6153   23.1333 H      0
    7.5502   44.9505   21.9828 H      0
  1  2  2
  1  3  1
  1  4  1
  4  5  1
  4  6  1
  4  7  1
  3  8  1
  3  9  1
  3 10  1
M  END
$$$$
C:DMS8411
  --CCDC--021119    3D                              

 10  9  0  0  0  0  0  0  0  0999 V2000
   31.8801   34.5341   28.2972 S      0
   30.8346   33.7484   29.0611 O      0
   32.6021   33.3311   27.1574 C      0
   33.2362   34.7407   29.3951 C      0
   31.8254   32.9416   26.5009 H      0
   33.3736   33.8147   26.5601 H      0
   33.0422   32.5123   27.7247 H      0
   33.6173   33.7639   29.6891 H      0
   34.0244   35.3029   28.8966 H      0
   32.9073   35.2834   30.2801 H      0
  1  2  2
  1  3  1
  1  4  1
  3  5  1
  3  6  1
  3  7  1
  4  8  1
  4  9  1
  4 10  1
M  END
$$$$
C:DMS8412
  --CCDC--021119    3D                              

 10  9  0  0  0  0  0  0  0  0999 V2000
   17.5992   17.4882  -25.4183 S      0
   16.9002   18.5004  -24.3743 O      0
   17.5253   18.2928  -27.0428 C      0
   16.4219   16.1724  -25.6966 C      0
   18.0593   19.2410  -27.0028 H      0
   17.9867   17.6475  -27.7888 H      0
   16.4855   18.4728  -27.3117 H      0
   15.5033   16.5882  -26.1080 H      0
   16.8408   15.4528  -26.3984 H      0
   16.2042   15.6745  -24.7528 H      0
  1  2  2
  1  3  1
  1  4  1
  3  5  1
  3  6  1
  3  7  1
  4  8  1
  4  9  1
  4 10  1
M  END
$$$$
C:DMS8413
  --CCDC--021119    3D                              

 10  9  0  0  0  0  0  0  0  0999 V2000
    9.6384   44.1307   26.4016 S      0
   10.2536   42.8828   25.7833 O      0
    9.0373   45.1769   24.9656 C      0
   11.0155   45.2518   26.7636 C      0
   11.5407   45.4916   25.8402 H      0
   10.6305   46.1672   27.2105 H      0
   11.7028   44.7702   27.4575 H      0
    8.2995   44.6172   24.3926 H      0
    8.5838   46.0906   25.3470 H      0
    9.8795   45.4303   24.3235 H      0
  1  2  2
  1  3  1
  1  4  1
  4  5  1
  4  6  1
  4  7  1
  3  8  1
  3  9  1
  3 10  1
M  END
$$$$
C:DMS8414
  --CCDC--021119    3D                              

 10  9  0  0  0  0  0  0  0  0999 V2000
   28.8104   48.0091   14.1581 S      0
   29.6742   48.0909   12.9575 O      0
   28.7066   49.4766   14.8561 C      0
   29.7341   47.0307   15.3667 C      0
   28.2778   50.1853   14.1491 H      0
   28.0713   49.4147   15.7385 H      0
   29.7011   49.8111   15.1476 H      0
   30.6765   47.5278   15.5920 H      0
   29.1478   46.9334   16.2792 H      0
   29.9342   46.0419   14.9566 H      0
  1  2  2
  1  3  1
  1  4  1
  3  5  1
  3  6  1
  3  7  1
  4  8  1
  4  9  1
  4 10  1
M  END
$$$$
C:DMS8415
  --CCDC--021119    3D                              

 10  9  0  0  0  0  0  0  0  0999 V2000
   38.6466   10.5640   22.8127 S      0
   37.6300   11.5453   22.1047 O      0
   38.0374   10.2216   24.6515 C      0
   40.0666   11.5703   23.1497 C      0
   37.0475    9.7683   24.6275 H      0
   38.7343    9.5456   25.1448 H      0
   37.9932   11.1612   25.2002 H      0
   39.7800   12.3970   23.7980 H      0
   40.8285   10.9691   23.6436 H      0
   40.4635   11.9628   22.2147 H      0
  1  2  2
  1  3  1
  1  4  1
  3  5  1
  3  6  1
  3  7  1
  4  8  1
  4  9  1
  4 10  1
M  END
$$$$
C:DMS8417
  --CCDC--021119    3D                              

 10  9  0  0  0  0  0  0  0  0999 V2000
   19.2778    0.7118   -8.7224 S      0
   20.0338    1.8938   -8.2438 O      0
   18.7975    1.1011  -10.3977 C      0
   17.8089    0.6639   -7.8339 C      0
   17.2466    1.5792   -8.0126 H      0
   17.2186   -0.1933   -8.1544 H      0
   18.0301    0.5754   -6.7713 H      0
   19.6883    1.2746  -10.9997 H      0
   18.2330    0.2692  -10.8161 H      0
   18.1784    1.9970  -10.3989 H      0
  1  2  2
  1  3  1
  1  4  1
  4  5  1
  4  6  1
  4  7  1
  3  8  1
  3  9  1
  3 10  1
M  END
$$$$
C:DMS8420
  --CCDC--021119    3D                              

 10  9  0  0  0  0  0  0  0  0999 V2000
   -9.6015   23.8403    4.2670 S      0
  -10.6859   24.2536    3.2289 O      0
  -10.2995   22.4647    5.1774 C      0
   -9.6145   25.0473    5.4885 C      0
  -10.5204   21.6493    4.4902 H      0
   -9.5852   22.1250    5.9260 H      0
  -11.2172   22.7834    5.6696 H      0
  -10.6004   25.0868    5.9493 H      0
   -8.8695   24.8059    6.2453 H      0
   -9.3818   26.0145    5.0456 H      0
  1  2  2
  1  3  1
  1  4  1
  3  5  1
  3  6  1
  3  7  1
  4  8  1
  4  9  1
  4 10  1
M  END
$$$$
C:DMS8421
  --CCDC--021119    3D                              

 10  9  0  0  0  0  0  0  0  0999 V2000
   23.2772   51.8315   19.5509 S      0
   22.0190   52.6791   19.7852 O      0
   23.9972   51.6409   21.0995 C      0
   24.5464   52.9227   19.0992 C      0
   23.2975   51.1383   21.7657 H      0
   24.9033   51.0439   21.0075 H      0
   24.2470   52.6195   21.5067 H      0
   24.7102   53.6410   19.9011 H      0
   25.4624   52.3608   18.9225 H      0
   24.2640   53.4517   18.1901 H      0
  1  2  2
  1  3  1
  1  4  1
  3  5  1
  3  6  1
  3  7  1
  4  8  1
  4  9  1
  4 10  1
M  END
$$$$
C:DMS8423
  --CCDC--021119    3D                              

 10  9  0  0  0  0  0  0  0  0999 V2000
   32.4173   30.5938   36.8501 S      0
   32.1138   29.9449   35.5269 O      0
   32.1237   32.3358   36.6577 C      0
   34.2148   30.5459   37.0206 C      0
   31.0839   32.5001   36.3792 H      0
   32.3327   32.8451   37.5973 H      0
   32.7748   32.7298   35.8786 H      0
   34.6722   31.0934   36.1979 H      0
   34.5021   31.0041   37.9658 H      0
   34.5538   29.5112   37.0010 H      0
  1  2  2
  1  3  1
  1  4  1
  3  5  1
  3  6  1
  3  7  1
  4  8  1
  4  9  1
  4 10  1
M  END
$$$$
C:DMS8425
  --CCDC--021119    3D                              

 10  9  0  0  0  0  0  0  0  0999 V2000
   46.5015    2.7453    8.4153 S      0
   45.0276    2.2831    8.1490 O      0
   46.5824    4.5502    7.9616 C      0
   47.4631    1.9736    7.1379 C      0
   45.8818    5.1113    8.5783 H      0
   47.5921    4.9218    8.1295 H      0
   46.3204    4.6727    6.9116 H      0
   47.1072    2.3068    6.1641 H      0
   48.5102    2.2489    7.2553 H      0
   47.3619    0.8918    7.2107 H      0
  1  2  2
  1  3  1
  1  4  1
  3  5  1
  3  6  1
  3  7  1
  4  8  1
  4  9  1
  4 10  1
M  END
$$$$
C:DMS8501
  --CCDC--021119    3D                              

 10  9  0  0  0  0  0  0  0  0999 V2000
   32.9456   32.0733   -5.6052 S      0
   34.3206   32.8629   -5.3439 O      0
   33.3970   30.6557   -6.1197 C      0
   32.4353   32.6064   -7.1947 C      0
   34.0058   30.1702   -5.3585 H      0
   32.5175   30.0467   -6.3240 H      0
   33.9797   30.7695   -7.0326 H      0
   33.1991   32.3482   -7.9267 H      0
   31.4992   32.1165   -7.4587 H      0
   32.2905   33.6856   -7.1865 H      0
  1  2  2
  1  3  1
  1  4  1
  3  5  1
  3  6  1
  3  7  1
  4  8  1
  4  9  1
  4 10  1
M  END
$$$$
C:DMS8503
  --CCDC--021119    3D                              

 10  9  0  0  0  0  0  0  0  0999 V2000
   30.4871   -5.0634   23.9864 S      0
   31.3239   -6.2603   24.1639 O      0
   31.6394   -3.7476   24.0472 C      0
   29.5304   -4.8687   25.3984 C      0
   32.3685   -3.8663   23.2470 H      0
   31.1160   -2.8006   23.9239 H      0
   32.1509   -3.7572   25.0086 H      0
   30.1806   -4.7474   26.2635 H      0
   28.9004   -3.9869   25.2913 H      0
   28.9033   -5.7483   25.5361 H      0
  1  2  2
  1  3  1
  1  4  1
  3  5  1
  3  6  1
  3  7  1
  4  8  1
  4  9  1
  4 10  1
M  END
$$$$
C:DMS8504
  --CCDC--021119    3D                              

 10  9  0  0  0  0  0  0  0  0999 V2000
   30.4451   43.1863  -17.7569 S      0
   29.6462   42.2090  -18.6504 O      0
   32.1837   42.9856  -18.1927 C      0
   30.3283   42.6153  -16.0697 C      0
   32.3234   43.2223  -19.2465 H      0
   32.7897   43.6572  -17.5864 H      0
   32.4876   41.9563  -18.0084 H      0
   30.7461   41.6123  -15.9962 H      0
   30.8843   43.2888  -15.4192 H      0
   29.2831   42.5964  -15.7644 H      0
  1  2  2
  1  3  1
  1  4  1
  3  5  1
  3  6  1
  3  7  1
  4  8  1
  4  9  1
  4 10  1
M  END
$$$$
C:DMS8506
  --CCDC--021119    3D                              

 10  9  0  0  0  0  0  0  0  0999 V2000
    9.8841   26.8242   27.4775 S      0
   10.7379   27.9034   28.2364 O      0
    8.1086   26.9710   28.1836 C      0
   10.1817   25.2878   28.3252 C      0
    7.7276   27.9749   28.0021 H      0
    7.4622   26.2436   27.6946 H      0
    8.1269   26.7778   29.2551 H      0
    9.8691   25.3801   29.3642 H      0
    9.6141   24.4923   27.8446 H      0
   11.2439   25.0511   28.2853 H      0
  1  2  2
  1  3  1
  1  4  1
  3  5  1
  3  6  1
  3  7  1
  4  8  1
  4  9  1
  4 10  1
M  END
$$$$
C:DMS8601
  --CCDC--021119    3D                              

 10  9  0  0  0  0  0  0  0  0999 V2000
   33.0614    8.3008  -18.5018 S      0
   33.0245    6.9731  -17.8347 O      0
   32.5122    7.9884  -20.1562 C      0
   34.9028    8.7780  -18.7222 C      0
   31.5047    7.5757  -20.1323 H      0
   32.5096    8.9201  -20.7199 H      0
   33.1846    7.2771  -20.6336 H      0
   35.4011    8.0286  -19.3354 H      0
   34.9702    9.7494  -19.2099 H      0
   35.3843    8.8274  -17.7467 H      0
  1  2  2
  1  3  1
  1  4  1
  3  5  1
  3  6  1
  3  7  1
  4  8  1
  4  9  1
  4 10  1
M  END
$$$$
C:DMS8602
  --CCDC--021119    3D                              

 10  9  0  0  0  0  0  0  0  0999 V2000
   35.7067   13.7485  -22.0688 S      0
   35.3242   12.5865  -21.2920 O      0
   34.4365   13.9761  -23.3951 C      0
   37.1606   13.2803  -22.9722 C      0
   33.4592   14.1286  -22.9394 H      0
   34.6945   14.8444  -23.9997 H      0
   34.4082   13.0894  -24.0266 H      0
   36.9298   12.4348  -23.6186 H      0
   37.4971   14.1198  -23.5789 H      0
   37.9473   12.9991  -22.2736 H      0
  1  2  2
  1  3  1
  1  4  1
  3  5  1
  3  6  1
  3  7  1
  4  8  1
  4  9  1
  4 10  1
M  END
$$$$
D:IPT2001
  --CCDC--021119    3D                              

 33 33  0  0  0  0  0  0  0  0999 V2000
   12.7860  -28.1460   22.1456 C      0
   11.5717  -27.9962   21.2491 C      0
   11.8383  -26.8791   20.3955 O      0
   10.2885  -27.7496   22.0648 C      0
    9.1411  -27.7357   21.1623 O      0
   10.1527  -28.7859   23.2036 C      0
    9.8282  -30.1186   22.7239 O      0
   11.4978  -28.8028   23.9305 C      0
   12.5623  -29.2151   23.0371 O      0
   11.5357  -30.0467   24.7971 C      0
   10.6130  -29.6943   25.8422 O      0
   14.0852  -28.7000   21.0437 S      0
   15.6220  -28.1160   21.9402 C      0
   16.8632  -28.3915   21.1005 C      0
   15.8607  -28.9296   23.2325 C      0
   10.3670  -26.7632   22.5194 H      0
    9.3779  -28.4570   23.8946 H      0
   15.5470  -27.0540   22.1690 H      0
   16.7840  -27.8635   20.1514 H      0
   17.7470  -28.0466   21.6351 H      0
   16.9458  -29.4614   20.9149 H      0
   12.5346  -30.2265   25.1919 H      0
   11.1989  -30.9248   24.2481 H      0
   15.9847  -29.9820   22.9813 H      0
   16.7592  -28.5667   23.7292 H      0
   15.0062  -28.8135   23.8976 H      0
   12.6559  -27.0585   19.8612 H      0
   13.0415  -27.2206   22.6597 H      0
   11.4521  -28.8948   20.6456 H      0
   10.5448  -30.4342   22.1133 H      0
   11.7135  -27.8840   24.4738 H      0
    9.7190  -29.5166   25.4483 H      0
    9.0764  -28.6098   20.6956 H      0
  1  2  1
  1  9  1
  1 12  1
  2  3  1
  2  4  1
  4  5  1
  4  6  1
  6  7  1
  6  8  1
  8  9  1
  8 10  1
 10 11  1
 12 13  1
 13 14  1
 13 15  1
  4 16  1
  6 17  1
 13 18  1
 14 19  1
 14 20  1
 14 21  1
 10 22  1
 10 23  1
 15 24  1
 15 25  1
 15 26  1
  3 27  1
  1 28  1
  2 29  1
  7 30  1
  8 31  1
 11 32  1
  5 33  1
M  END
$$$$
D:DMS8401
  --CCDC--021119    3D                              

 10  9  0  0  0  0  0  0  0  0999 V2000
  -18.3591  -21.8337   13.1031 S      0
  -19.6234  -22.6663   13.7034 O      0
  -19.0372  -20.7925   11.7150 C      0
  -17.3206  -23.0896   12.1627 C      0
  -19.8001  -20.1203   12.1047 H      0
  -18.2314  -20.2092   11.2718 H      0
  -19.4763  -21.4395   10.9570 H      0
  -17.9178  -23.5308   11.3661 H      0
  -16.4519  -22.5931   11.7328 H      0
  -16.9910  -23.8717   12.8450 H      0
  1  2  2
  1  3  1
  1  4  1
  3  5  1
  3  6  1
  3  7  1
  4  8  1
  4  9  1
  4 10  1
M  END
$$$$
D:DMS8402
  --CCDC--021119    3D                              

 10  9  0  0  0  0  0  0  0  0999 V2000
   -0.8987   -8.3717   34.8737 S      0
   -2.4096   -8.0882   34.5337 O      0
   -0.8238   -8.4037   36.7255 C      0
    0.0589   -6.7026   34.6344 C      0
   -1.4756   -9.1908   37.1016 H      0
    0.1995   -8.5965   37.0441 H      0
   -1.1514   -7.4424   37.1187 H      0
   -0.3517   -5.9491   35.3049 H      0
    1.1135   -6.8535   34.8602 H      0
   -0.0473   -6.3677   33.6036 H      0
  1  2  2
  1  3  1
  1  4  1
  3  5  1
  3  6  1
  3  7  1
  4  8  1
  4  9  1
  4 10  1
M  END
$$$$
D:DMS8403
  --CCDC--021119    3D                              

 10  9  0  0  0  0  0  0  0  0999 V2000
  -11.4898  -15.9618   32.0088 S      0
  -12.2987  -14.9505   31.1013 O      0
  -12.3925  -17.5550   31.9958 C      0
  -11.6486  -15.2959   33.7618 C      0
  -12.4568  -17.9276   30.9745 H      0
  -11.8616  -18.2781   32.6132 H      0
  -13.3961  -17.4069   32.3920 H      0
  -12.7001  -15.2611   34.0431 H      0
  -11.1107  -15.9483   34.4481 H      0
  -11.2269  -14.2930   33.8088 H      0
  1  2  2
  1  3  1
  1  4  1
  3  5  1
  3  6  1
  3  7  1
  4  8  1
  4  9  1
  4 10  1
M  END
$$$$
D:DMS8404
  --CCDC--021119    3D                              

 10  9  0  0  0  0  0  0  0  0999 V2000
  -21.8263  -35.2868   16.7249 S      0
  -22.0919  -35.8468   18.0481 O      0
  -22.8957  -33.8153   16.5753 C      0
  -22.4983  -36.4328   15.6060 C      0
  -22.6457  -33.1035   17.3606 H      0
  -22.7410  -33.3515   15.6022 H      0
  -23.9386  -34.1130   16.6738 H      0
  -23.5665  -36.5369   15.7907 H      0
  -22.3385  -36.0823   14.5874 H      0
  -22.0113  -37.3978   15.7384 H      0
  1  2  2
  1  3  1
  1  4  1
  3  5  1
  3  6  1
  3  7  1
  4  8  1
  4  9  1
  4 10  1
M  END
$$$$
D:DMS8405
  --CCDC--021119    3D                              

 10  9  0  0  0  0  0  0  0  0999 V2000
  -32.2805  -21.2348    1.1547 S      0
  -30.7667  -21.5602    0.7469 O      0
  -33.3820  -22.2710    0.1087 C      0
  -32.4703  -19.6125    0.5614 C      0
  -32.3048  -19.5980   -0.5148 H      0
  -33.4782  -19.2622    0.7785 H      0
  -31.7466  -18.9608    1.0488 H      0
  -33.1625  -23.3235    0.2821 H      0
  -34.4210  -22.0697    0.3653 H      0
  -33.2147  -22.0335   -0.9408 H      0
  1  2  2
  1  3  1
  1  4  1
  4  5  1
  4  6  1
  4  7  1
  3  8  1
  3  9  1
  3 10  1
M  END
$$$$
D:DMS8406
  --CCDC--021119    3D                              

 10  9  0  0  0  0  0  0  0  0999 V2000
  -38.8842  -34.0399    7.3034 S      0
  -39.4654  -33.4489    6.1656 O      0
  -40.0346  -33.6306    8.6616 C      0
  -37.6300  -32.8909    7.7851 C      0
  -41.0170  -34.0464    8.4429 H      0
  -39.6610  -34.0527    9.5933 H      0
  -40.1117  -32.5487    8.7584 H      0
  -38.0866  -31.9281    8.0097 H      0
  -37.1161  -33.2641    8.6696 H      0
  -36.9147  -32.7726    6.9725 H      0
  1  2  2
  1  3  1
  1  4  1
  3  5  1
  3  6  1
  3  7  1
  4  8  1
  4  9  1
  4 10  1
M  END
$$$$
D:DMS8408
  --CCDC--021119    3D                              

 10  9  0  0  0  0  0  0  0  0999 V2000
  -17.8838  -53.9859   22.9992 S      0
  -18.5808  -55.2846   22.8566 O      0
  -16.4688  -54.2085   24.2068 C      0
  -18.8944  -52.9866   23.8757 C      0
  -15.7811  -54.9618   23.8253 H      0
  -15.9416  -53.2631   24.3265 H      0
  -16.8612  -54.5299   25.1704 H      0
  -19.0867  -53.4303   24.8514 H      0
  -18.4203  -52.0148   24.0059 H      0
  -19.8352  -52.8628   23.3414 H      0
  1  2  2
  1  3  1
  1  4  1
  3  5  1
  3  6  1
  3  7  1
  4  8  1
  4  9  1
  4 10  1
M  END
$$$$
D:DMS8409
  --CCDC--021119    3D                              

 10  9  0  0  0  0  0  0  0  0999 V2000
  -13.1215  -13.5159    7.1159 S      0
  -14.0282  -14.9265    7.1987 O      0
  -13.9164  -12.4927    5.7727 C      0
  -11.5008  -13.9692    6.4578 C      0
  -14.9518  -12.2855    6.0389 H      0
  -13.3750  -11.5542    5.6630 H      0
  -13.8861  -13.0413    4.8325 H      0
  -11.6206  -14.4086    5.4686 H      0
  -10.8763  -13.0799    6.3867 H      0
  -11.0287  -14.6921    7.1214 H      0
  1  2  2
  1  3  1
  1  4  1
  3  5  1
  3  6  1
  3  7  1
  4  8  1
  4  9  1
  4 10  1
M  END
$$$$
D:DMS8410
  --CCDC--021119    3D                              

 10  9  0  0  0  0  0  0  0  0999 V2000
   14.3708  -49.2280   18.4360 S      0
   14.4357  -49.9647   17.0649 O      0
   14.9360  -50.3760   19.7882 C      0
   12.6232  -48.9984   18.8459 C      0
   15.9606  -50.6894   19.5937 H      0
   14.8899  -49.8595   20.7458 H      0
   14.2879  -51.2508   19.8162 H      0
   12.1352  -49.9697   18.9117 H      0
   12.5392  -48.4843   19.8022 H      0
   12.1437  -48.4030   18.0703 H      0
  1  2  2
  1  3  1
  1  4  1
  3  5  1
  3  6  1
  3  7  1
  4  8  1
  4  9  1
  4 10  1
M  END
$$$$
D:DMS8411
  --CCDC--021119    3D                              

 10  9  0  0  0  0  0  0  0  0999 V2000
    2.7791  -40.2303   42.2529 S      0
    4.0773  -39.3668   41.9408 O      0
    1.3751  -39.0813   42.0724 C      0
    2.7252  -40.3641   44.0079 C      0
    1.3564  -38.6876   41.0572 H      0
    0.4448  -39.6104   42.2738 H      0
    1.4854  -38.2596   42.7784 H      0
    2.6591  -39.3693   44.4460 H      0
    1.8540  -40.9483   44.3009 H      0
    3.6290  -40.8575   44.3623 H      0
  1  2  2
  1  3  1
  1  4  1
  3  5  1
  3  6  1
  3  7  1
  4  8  1
  4  9  1
  4 10  1
M  END
$$$$
D:DMS8412
  --CCDC--021119    3D                              

 10  9  0  0  0  0  0  0  0  0999 V2000
  -28.2362  -24.1468   -4.3767 S      0
  -27.0179  -25.1471   -4.1782 O      0
  -28.7445  -24.2107   -6.1985 C      0
  -27.5971  -22.5455   -4.1483 C      0
  -29.0426  -25.2257   -6.4568 H      0
  -29.5804  -23.5331   -6.3662 H      0
  -27.9030  -23.9100   -6.8209 H      0
  -26.8150  -22.3587   -4.8827 H      0
  -28.3949  -21.8150   -4.2738 H      0
  -27.1813  -22.4602   -3.1454 H      0
  1  2  2
  1  3  1
  1  4  1
  3  5  1
  3  6  1
  3  7  1
  4  8  1
  4  9  1
  4 10  1
M  END
$$$$
D:DMS8413
  --CCDC--021119    3D                              

 10  9  0  0  0  0  0  0  0  0999 V2000
   15.9126  -49.7790   24.7393 S      0
   14.5525  -48.8796   24.5717 O      0
   16.1582  -50.5477   23.1677 C      0
   15.4802  -51.1587   25.7554 C      0
   16.2775  -49.7812   22.4034 H      0
   17.0528  -51.1678   23.2027 H      0
   15.2958  -51.1680   22.9282 H      0
   14.6913  -51.7327   25.2716 H      0
   16.3543  -51.7921   25.8986 H      0
   15.1285  -50.8014   26.7221 H      0
  1  2  2
  1  3  1
  1  4  1
  3  5  1
  3  6  1
  3  7  1
  4  8  1
  4  9  1
  4 10  1
M  END
$$$$
D:DMS8414
  --CCDC--021119    3D                              

 10  9  0  0  0  0  0  0  0  0999 V2000
   -6.1443  -54.1206   31.4394 S      0
   -7.4395  -53.9310   30.7244 O      0
   -6.2612  -55.7329   32.0646 C      0
   -6.3421  -53.2272   32.9511 C      0
   -6.3865  -56.4336   31.2405 H      0
   -5.3524  -55.9763   32.6130 H      0
   -7.1180  -55.8017   32.7332 H      0
   -7.1800  -53.6408   33.5103 H      0
   -5.4327  -53.3117   33.5443 H      0
   -6.5353  -52.1784   32.7303 H      0
  1  2  2
  1  3  1
  1  4  1
  3  5  1
  3  6  1
  3  7  1
  4  8  1
  4  9  1
  4 10  1
M  END
$$$$
D:DMS8416
  --CCDC--021119    3D                              

 10  9  0  0  0  0  0  0  0  0999 V2000
  -34.8928  -39.2700  -10.6310 S      0
  -36.0802  -39.6004   -9.6009 O      0
  -35.6128  -39.3359  -12.2235 C      0
  -33.8783  -40.6786  -10.6929 C      0
  -34.4620  -41.5316  -11.0356 H      0
  -33.0540  -40.5022  -11.3823 H      0
  -33.4828  -40.8850   -9.6994 H      0
  -36.4117  -38.5989  -12.2915 H      0
  -34.8542  -39.1191  -12.9742 H      0
  -36.0209  -40.3306  -12.3966 H      0
  1  2  2
  1  3  1
  1  4  1
  4  5  1
  4  6  1
  4  7  1
  3  8  1
  3  9  1
  3 10  1
M  END
$$$$
D:DMS8417
  --CCDC--021119    3D                              

 10  9  0  0  0  0  0  0  0  0999 V2000
  -16.8413   -7.4323    7.9147 S      0
  -17.4734   -8.0612    9.1223 O      0
  -16.5946   -5.6943    8.3305 C      0
  -18.0725   -7.5491    6.6513 C      0
  -15.9435   -5.6179    9.2001 H      0
  -16.1355   -5.1808    7.4870 H      0
  -17.5560   -5.2349    8.5555 H      0
  -18.9668   -7.0127    6.9652 H      0
  -17.6906   -7.1105    5.7305 H      0
  -18.3186   -8.5960    6.4799 H      0
  1  2  2
  1  3  1
  1  4  1
  3  5  1
  3  6  1
  3  7  1
  4  8  1
  4  9  1
  4 10  1
M  END
$$$$
D:DMS8421
  --CCDC--021119    3D                              

 10  9  0  0  0  0  0  0  0  0999 V2000
    1.6197  -57.6486   30.9547 S      0
    0.4074  -58.5291   30.5200 O      0
    3.0687  -58.4123   30.2796 C      0
    1.7256  -57.8233   32.7248 C      0
    2.9865  -58.4509   29.1944 H      0
    3.9475  -57.8319   30.5567 H      0
    3.1627  -59.4235   30.6728 H      0
    1.8842  -58.8707   32.9773 H      0
    2.5582  -57.2295   33.0990 H      0
    0.7990  -57.4765   33.1798 H      0
  1  2  2
  1  3  1
  1  4  1
  3  5  1
  3  6  1
  3  7  1
  4  8  1
  4  9  1
  4 10  1
M  END
$$$$
D:DMS8501
  --CCDC--021119    3D                              

 10  9  0  0  0  0  0  0  0  0999 V2000
  -23.7475  -38.3535   20.5910 S      0
  -24.5294  -38.9475   21.8444 O      0
  -24.0431  -36.5836   20.6478 C      0
  -24.5854  -38.8567   19.1630 C      0
  -25.6057  -38.4769   19.1879 H      0
  -24.0737  -38.4652   18.2850 H      0
  -24.6040  -39.9446   19.1173 H      0
  -23.6611  -36.1817   21.5851 H      0
  -23.5346  -36.1036   19.8130 H      0
  -25.1130  -36.3918   20.5798 H      0
  1  2  2
  1  3  1
  1  4  1
  4  5  1
  4  6  1
  4  7  1
  3  8  1
  3  9  1
  3 10  1
M  END
$$$$
D:DMS8503
  --CCDC--021119    3D                              

 10  9  0  0  0  0  0  0  0  0999 V2000
    0.2576   -0.9634   38.2312 S      0
   -0.5602    0.1597   38.8415 O      0
   -0.3755   -2.4149   38.9113 C      0
    1.9443   -0.8755   39.0290 C      0
   -1.4300   -2.5059   38.6552 H      0
    0.1697   -3.2698   38.5140 H      0
   -0.2661   -2.3861   39.9944 H      0
    1.8438   -1.0052   40.1056 H      0
    2.5780   -1.6641   38.6259 H      0
    2.3943    0.0940   38.8206 H      0
  1  2  2
  1  3  1
  1  4  1
  3  5  1
  3  6  1
  3  7  1
  4  8  1
  4  9  1
  4 10  1
M  END
$$$$
D:DMS8506
  --CCDC--021119    3D                              

 10  9  0  0  0  0  0  0  0  0999 V2000
   16.5876  -32.8879   25.1102 S      0
   18.0156  -33.5148   25.2089 O      0
   16.2281  -32.8929   23.3990 C      0
   16.8403  -31.1808   25.3436 C      0
   16.2502  -33.9159   23.0265 H      0
   15.2390  -32.4679   23.2347 H      0
   16.9713  -32.2979   22.8702 H      0
   17.5035  -30.8025   24.5670 H      0
   15.8845  -30.6616   25.2893 H      0
   17.2908  -31.0107   26.3203 H      0
  1  2  2
  1  3  1
  1  4  1
  3  5  1
  3  6  1
  3  7  1
  4  8  1
  4  9  1
  4 10  1
M  END
$$$$
D:DMS8508
  --CCDC--021119    3D                              

 10  9  0  0  0  0  0  0  0  0999 V2000
    8.2104  -32.8310   54.0277 S      0
    8.4950  -31.5731   55.0787 O      0
    9.7692  -33.9161   54.1942 C      0
    8.4491  -32.2090   52.3953 C      0
    9.4704  -31.8458   52.2909 H      0
    8.2715  -33.0053   51.6739 H      0
    7.7528  -31.3919   52.2128 H      0
    9.8686  -34.2530   55.2250 H      0
    9.6821  -34.7799   53.5369 H      0
   10.6473  -33.3353   53.9159 H      0
  1  2  2
  1  3  1
  1  4  1
  4  5  1
  4  6  1
  4  7  1
  3  8  1
  3  9  1
  3 10  1
M  END
$$$$
D:DMS8701
  --CCDC--021119    3D                              

 10  9  0  0  0  0  0  0  0  0999 V2000
  -41.7362  -38.0800    9.3437 S      0
  -43.0044  -36.9779    9.4145 O      0
  -41.7841  -38.8936   10.9621 C      0
  -40.2253  -36.9350    9.7754 C      0
  -42.7485  -39.3819   11.0945 H      0
  -40.9902  -39.6369   11.0184 H      0
  -41.6425  -38.1511   11.7460 H      0
  -40.3695  -36.5011   10.7638 H      0
  -39.3095  -37.5241    9.7677 H      0
  -40.1508  -36.1384    9.0366 H      0
  1  2  2
  1  3  1
  1  4  1
  3  5  1
  3  6  1
  3  7  1
  4  8  1
  4  9  1
  4 10  1
M  END
$$$$
D:DMS8703
  --CCDC--021119    3D                              

 10  9  0  0  0  0  0  0  0  0999 V2000
  -31.0952  -49.4097   15.5322 S      0
  -30.8805  -50.2982   16.8326 O      0
  -32.6860  -48.5911   15.7945 C      0
  -31.6504  -50.5078   14.3386 C      0
  -32.6369  -47.9830   16.6966 H      0
  -32.9122  -47.9552   14.9399 H      0
  -33.4668  -49.3421   15.9050 H      0
  -32.5800  -50.9668   14.6719 H      0
  -31.8236  -49.9731   13.4059 H      0
  -30.9003  -51.2811   14.1798 H      0
  1  2  2
  1  3  1
  1  4  1
  3  5  1
  3  6  1
  3  7  1
  4  8  1
  4  9  1
  4 10  1
M  END
$$$$
D:DMS8705
  --CCDC--021119    3D                              

 10  9  0  0  0  0  0  0  0  0999 V2000
  -25.6668  -55.1089    4.4315 S      0
  -27.2406  -54.4141    4.4644 O      0
  -25.3932  -55.5981    2.8161 C      0
  -25.7537  -56.6613    5.4247 C      0
  -25.4520  -54.7313    2.1594 H      0
  -24.4049  -56.0482    2.7355 H      0
  -26.1486  -56.3264    2.5244 H      0
  -26.4848  -57.3356    4.9811 H      0
  -24.7762  -57.1412    5.4344 H      0
  -26.0514  -56.4234    6.4448 H      0
  1  2  2
  1  3  1
  1  4  1
  3  5  1
  3  6  1
  3  7  1
  4  8  1
  4  9  1
  4 10  1
M  END
$$$$
