A:GOL1299
  --CCDC--020119    3D                              

 14 13  0  0  0  0  0  0  0  0999 V2000
   35.5627   -4.5860   68.9685 C      0
   35.1097   -5.4810   69.9825 O      0
   36.9667   -4.1140   69.3375 C      0
   37.7028   -3.8930   68.1365 O      0
   36.8677   -2.7830   70.0805 C      0
   37.0797   -1.7270   69.1435 O      0
   37.6262   -2.7401   70.8608 H      0
   35.8800   -2.6844   70.5285 H      0
   37.2458   -3.2004   67.5910 H      0
   36.3879   -1.7714   68.4326 H      0
   37.4662   -4.8576   69.9568 H      0
   35.0916   -5.0094   70.8562 H      0
   34.8915   -3.7307   68.9056 H      0
   35.5874   -5.0994   68.0085 H      0
  1  2  1
  1  3  1
  3  4  1
  3  5  1
  5  6  1
  5  7  1
  5  8  1
  4  9  1
  6 10  1
  3 11  1
  2 12  1
  1 13  1
  1 14  1
M  END
$$$$
A:GOL1300
  --CCDC--020119    3D                              

 14 13  0  0  0  0  0  0  0  0999 V2000
   36.3017   20.0989   48.7117 C      0
   35.8697   21.4088   48.3247 O      0
   37.5688   19.7159   47.9417 C      0
   38.3368   20.8969   47.6847 O      0
   38.4198   18.7339   48.7567 C      0
   37.6588   18.1199   49.7986 O      0
   39.2554   19.2734   49.1999 H      0
   38.7994   17.9590   48.0923 H      0
   35.6756   21.4192   47.3509 H      0
   37.2904   19.2534   46.9958 H      0
   36.8970   17.6212   49.4023 H      0
   38.5858   21.3237   48.5460 H      0
   35.5144   19.3797   48.4908 H      0
   36.5125   20.0897   49.7800 H      0
  1  2  1
  1  3  1
  3  4  1
  3  5  1
  5  6  1
  5  7  1
  5  8  1
  2  9  1
  3 10  1
  6 11  1
  4 12  1
  1 13  1
  1 14  1
M  END
$$$$
A:LZ11301
  --CCDC--020119    3D                              

 15 16  0  0  0  0  0  0  0  0999 V2000
   26.6475    4.4300   64.2625 C      0
   27.3295    5.6500   64.3745 C      0
   26.8645    6.7380   63.6395 C      0
   25.7625    6.6120   62.8126 C      0
   25.1035    5.4010   62.7056 C      0
   25.5455    4.3090   63.4255 C      0
   27.3085    3.5470   65.0775 N      0
   28.3846    5.4130   65.2895 C      0
   28.3646    4.1370   65.6975 N      0
   27.0427    2.5754   65.2021 H      0
   27.3736    7.6976   63.7166 H      0
   25.4121    7.4713   62.2427 H      0
   29.1074    6.1599   65.6144 H      0
   25.0306    3.3535   63.3373 H      0
   24.2361    5.3086   62.0536 H      0
  1  2  4
  1  6  4
  1  7  1
  2  3  4
  2  8  1
  3  4  4
  4  5  4
  5  6  4
  7  9  1
  8  9  2
  7 10  1
  3 11  1
  4 12  1
  8 13  1
  6 14  1
  5 15  1
M  END
$$$$
