A:CEL701
  --CCDC--021119    3D                              

 40 42  0  0  0  0  0  0  0  0999 V2000
   15.2888    2.8460   16.6525 S      0
   15.9878    4.1961   15.7125 C      0
   15.1858    5.2151   15.2565 C      0
   15.7538    6.3001   14.6044 C      0
   17.1128    6.3321   14.4414 C      0
   17.9258    5.3111   14.8924 C      0
   17.3578    4.2111   15.5455 C      0
   17.6968    7.5281   13.8494 N      0
   17.5199    8.1911   12.6674 C      0
   16.7619    7.8191   11.4783 C      0
   16.8179    6.4971   11.0643 C      0
   16.1519    6.0971    9.9303 C      0
   15.3809    6.9931    9.2253 C      0
   14.6629    6.5371    7.9812 C      0
   15.2559    8.3001    9.6823 C      0
   15.9709    8.7061   10.7783 C      0
   18.3569    9.3031   12.7054 C      0
   18.9228    9.2701   13.9754 C      0
   19.8488   10.2671   14.5824 C      0
   21.0598   10.2581   14.0894 F      0
   19.9158   10.2131   15.9085 F      0
   19.3798   11.4892   14.3614 F      0
   18.5308    8.2111   14.6574 N      0
   15.8128    1.4840   16.0225 N      0
   13.8898    2.9120   16.5275 O      0
   15.8137    3.0120   17.9855 O      0
   17.9772    3.3930   15.9102 H      0
   19.0030    5.3614   14.7409 H      0
   17.3919    5.7725   11.6400 H      0
   16.2347    5.0665    9.5882 H      0
   13.9744    5.7321    8.2339 H      0
   14.1060    7.3713    7.5571 H      0
   15.3895    6.1784    7.2537 H      0
   14.5933    8.9975    9.1719 H      0
   15.9138    9.7445   11.1015 H      0
   15.5241    0.5963   16.4211 H      0
   16.4361    1.5020   15.2216 H      0
   18.5296   10.0347   11.9174 H      0
   15.1307    7.1107   14.2295 H      0
   14.1081    5.1709   15.4065 H      0
  1  2  1
  1 24  1
  1 25  2
  1 26  2
  2  3  4
  2  7  4
  3  4  4
  4  5  4
  5  6  4
  5  8  1
  6  7  4
  8  9  1
  8 23  1
  9 10  1
  9 17  2
 10 11  4
 10 16  4
 11 12  4
 12 13  4
 13 14  1
 13 15  4
 15 16  4
 17 18  1
 18 19  1
 18 23  2
 19 20  1
 19 21  1
 19 22  1
  7 27  1
  6 28  1
 11 29  1
 12 30  1
 14 31  1
 14 32  1
 14 33  1
 15 34  1
 16 35  1
 24 36  1
 24 37  1
 17 38  1
  4 39  1
  3 40  1
M  END
$$$$
