A:ORN500
  --CCDC--021119    3D                              

 21 20  0  0  0  0  0  0  0  0999 V2000
   45.3465   72.9498   15.1457 N      0
   44.3155   72.5388   16.1408 C      0
   44.6575   71.1808   16.7988 C      0
   46.1295   70.8258   17.0118 C      0
   46.2635   69.2897   17.1568 C      0
   47.6885   68.7317   17.0328 N      3
   44.0605   73.6238   17.1858 C      0
   43.1525   73.4318   18.0178 O      0
   44.7155   74.6938   17.1218 O      0
   43.3841   72.4004   15.5936 H      0
   44.2259   70.4017   16.1722 H      0
   44.1783   71.1671   17.7766 H      0
   45.4090   72.2490   14.4141 H      0
   45.0864   73.8422   14.7380 H      0
   48.2750   69.1381   17.7547 H      0
   47.6675   67.7228   17.1420 H      0
   48.0651   68.9654   16.1197 H      0
   46.4946   71.3108   17.9159 H      0
   46.7137   71.1639   16.1572 H      0
   45.6539   68.8260   16.3827 H      0
   45.8791   69.0113   18.1369 H      0
  1  2  1
  2  3  1
  2  7  1
  3  4  1
  4  5  1
  5  6  1
  7  8  4
  7  9  4
  2 10  1
  3 11  1
  3 12  1
  1 13  1
  1 14  1
  6 15  1
  6 16  1
  6 17  1
  4 18  1
  4 19  1
  5 20  1
  5 21  1
M  CHG  1   6   1
M  END
$$$$
