A:ORO1
  --CCDC--021119    3D                              

 14 14  0  0  0  0  0  0  0  0999 V2000
   -3.3540  -46.6167    7.2447 N      0
   -4.3201  -45.7246    7.5946 C      0
   -4.6321  -45.5486    8.7956 O      0
   -4.9611  -45.0016    6.6617 N      0
   -4.6701  -45.1356    5.3567 C      0
   -5.2621  -44.4666    4.4838 O      0
   -3.6941  -46.0336    4.9668 C      0
   -3.0330  -46.7717    5.9367 C      0
   -2.0200  -47.7637    5.4487 C      0
   -2.3490  -48.4387    4.4398 O      0
   -0.9320  -47.9287    6.0347 O      0
   -3.4480  -46.1595    3.9134 H      0
   -5.6780  -44.3423    6.9474 H      0
   -2.8779  -47.1613    7.9566 H      0
  1  2  1
  1  8  1
  2  3  2
  2  4  1
  4  5  1
  5  6  2
  5  7  1
  7  8  2
  8  9  1
  9 10  4
  9 11  4
  7 12  1
  4 13  1
  1 14  1
M  END
$$$$
A:ACY2
  --CCDC--021119    3D                              

  7  6  0  0  0  0  0  0  0  0999 V2000
  -15.3142  -32.6452   -4.9918 C      0
  -15.5392  -32.1271   -6.1197 O      0
  -16.0512  -32.5542   -3.9858 O      0
  -14.0782  -33.4532   -4.8288 C      0
  -13.2081  -32.8308   -5.0326 H      0
  -14.0234  -33.8310   -3.8089 H      0
  -14.0971  -34.2900   -5.5254 H      0
  1  2  4
  1  3  4
  1  4  1
  4  5  1
  4  6  1
  4  7  1
M  END
$$$$
A:SO43
  --CCDC--021119    3D                              

  5  4  0  0  0  0  0  0  0  0999 V2000
   11.1792  -38.4744   34.5004 S      0
   11.7322  -38.3564   33.1484 O      5
    9.9801  -39.3104   34.5064 O      5
   12.2092  -39.0874   35.3473 O      5
   10.8572  -37.1533   35.0133 O      5
  1  2  4
  1  3  4
  1  4  4
  1  5  4
M  CHG  4   2  -1   3  -1   4  -1   5  -1
M  END
$$$$
A:BCE397
  --CCDC--021119    3D                              

 35 36  0  0  0  0  0  0  0  0999 V2000
    8.1111  -31.4951   -2.3239 C      0
    9.0941  -30.5131   -2.1689 C      0
    9.8261  -30.4141   -0.9850 C      0
    9.5761  -31.3041    0.0610 C      0
    8.5911  -32.2781   -0.0950 C      0
    7.8281  -32.3631   -1.2689 C      0
    6.9101  -33.4152   -1.3559 C      0
    6.1311  -33.8172   -0.2590 C      0
    5.2821  -34.9242   -0.3790 C      0
    6.8571  -34.1612   -2.5369 C      0
    6.0051  -35.2602   -2.6529 C      0
    5.2111  -35.6513   -1.5739 C      0
    4.4141  -36.7353   -1.6439 N      0
    3.8401  -37.2283   -2.7499 C      0
    3.9181  -36.7153   -3.8678 O      0
    2.9980  -38.4984   -2.5579 C      0
    2.3320  -39.0474   -3.6978 C      0
    1.7970  -39.4854   -4.6038 N      0
    2.8460  -39.1774   -1.1939 C      0
    2.0010  -40.4464   -1.0390 C      0
    3.4710  -38.6564   -0.1080 O      0
   10.5898  -29.6452   -0.8774 H      0
    9.2911  -29.8165   -2.9825 H      0
    7.5686  -31.5821   -3.2641 H      0
   10.1439  -31.2383    0.9879 H      0
    8.4103  -32.9876    0.7111 H      0
    6.1870  -33.2703    0.6811 H      0
    5.9596  -35.8149   -3.5889 H      0
    7.4894  -33.8808   -3.3780 H      0
    4.6682  -35.2242    0.4690 H      0
    4.2306  -37.2261   -0.7746 H      0
    2.4086  -41.2335   -1.6717 H      0
    2.0197  -40.7703    0.0006 H      0
    0.9743  -40.2374   -1.3356 H      0
    3.1494  -37.7296    0.0461 H      0
  1  2  4
  1  6  4
  2  3  4
  3  4  4
  4  5  4
  5  6  4
  6  7  1
  7  8  4
  7 10  4
  8  9  4
  9 12  4
 10 11  4
 11 12  4
 12 13  1
 13 14  1
 14 15  2
 14 16  1
 16 17  1
 16 19  2
 17 18  3
 19 20  1
 19 21  1
  3 22  1
  2 23  1
  1 24  1
  4 25  1
  5 26  1
  8 27  1
 11 28  1
 10 29  1
  9 30  1
 13 31  1
 20 32  1
 20 33  1
 20 34  1
 21 35  1
M  END
$$$$
A:FMN398
  --CCDC--021119    3D                              

 52 54  0  0  0  0  0  0  0  0999 V2000
   -3.6181  -42.4585    8.7186 N      0
   -3.2290  -43.1475    9.8475 C      0
   -3.8581  -42.9755   10.8855 O      0
   -2.1450  -44.0166    9.8045 N      0
   -1.4330  -44.1886    8.6256 C      0
   -0.3610  -44.8036    8.6376 O      0
   -1.8270  -43.4895    7.4786 C      0
   -1.1530  -43.6485    6.2807 N      0
   -1.5380  -42.9505    5.1488 C      0
   -0.8360  -43.0955    3.9458 C      0
   -1.2240  -42.3815    2.8079 C      0
   -0.3530  -42.4205    1.5799 C      0
   -2.3150  -41.5025    2.8779 C      0
   -2.5790  -40.4864    1.8009 C      0
   -3.0060  -41.3615    4.0778 C      0
   -2.6230  -42.0725    5.2138 C      0
   -3.3160  -41.9185    6.4067 N      0
   -2.9240  -42.6195    7.5376 C      0
   -4.5801  -41.1195    6.4457 C      0
   -4.2901  -39.6424    6.7157 C      0
   -3.6401  -39.5114    7.9596 O      0
   -5.5791  -38.8034    6.7037 C      0
   -6.4481  -39.2384    7.7366 O      0
   -6.3151  -38.8854    5.3547 C      0
   -5.4071  -39.0824    4.2778 O      0
   -7.1831  -37.6503    5.1018 C      0
   -6.4041  -36.4763    5.0208 O      0
   -5.9411  -35.8253    3.6088 P      0
   -4.8581  -36.6873    3.0229 O      5
   -5.4031  -34.4412    3.8828 O      5
   -7.1191  -35.7943    2.6599 O      5
    0.0182  -43.7692    3.8962 H      0
   -4.4159  -41.8322    8.7565 H      0
   -0.2590  -43.4488    1.2341 H      0
   -0.8035  -41.8136    0.7959 H      0
    0.6333  -42.0273    1.8218 H      0
   -2.7331  -40.9961    0.8509 H      0
   -3.4694  -39.9126    2.0536 H      0
   -1.7257  -39.8149    1.7184 H      0
   -3.8584  -40.6857    4.1299 H      0
   -5.2210  -41.5063    7.2365 H      0
   -5.0893  -41.2125    5.4876 H      0
   -1.8731  -44.5273   10.6385 H      0
   -3.6265  -39.2707    5.9363 H      0
   -2.7866  -40.0187    7.9421 H      0
   -5.3154  -37.7633    6.8900 H      0
   -5.9970  -39.1330    8.6150 H      0
   -6.9755  -39.7505    5.3916 H      0
   -4.9084  -39.9299    4.4161 H      0
   -7.8960  -37.5460    5.9184 H      0
   -7.7216  -37.7827    4.1645 H      0
   -0.3649  -44.2862    6.2311 H      0
  1  2  1
  1 18  1
  2  3  2
  2  4  1
  4  5  1
  5  6  2
  5  7  1
  7  8  1
  7 18  2
  8  9  1
  9 10  4
  9 16  4
 10 11  4
 11 12  1
 11 13  4
 13 14  1
 13 15  4
 15 16  4
 16 17  1
 17 18  1
 17 19  1
 19 20  1
 20 21  1
 20 22  1
 22 23  1
 22 24  1
 24 25  1
 24 26  1
 26 27  1
 27 28  1
 28 29  4
 28 30  4
 28 31  4
 10 32  1
  1 33  1
 12 34  1
 12 35  1
 12 36  1
 14 37  1
 14 38  1
 14 39  1
 15 40  1
 19 41  1
 19 42  1
  4 43  1
 20 44  1
 21 45  1
 22 46  1
 23 47  1
 24 48  1
 25 49  1
 26 50  1
 26 51  1
  8 52  1
M  CHG  3  29  -1  30  -1  31  -1
M  END
$$$$
A:ACY399
  --CCDC--021119    3D                              

  7  6  0  0  0  0  0  0  0  0999 V2000
    7.3731  -33.9242   24.4858 C      0
    8.4311  -33.4272   24.0639 O      0
    6.6491  -33.3802   25.3538 O      0
    6.9561  -35.2492   23.9189 C      0
    7.7256  -35.9913   24.1264 H      0
    6.0184  -35.5610   24.3765 H      0
    6.8216  -35.1572   22.8421 H      0
  1  2  4
  1  3  4
  1  4  1
  4  5  1
  4  6  1
  4  7  1
M  END
$$$$
