A:984501
  --CCDC--021119    3D                              

 63 67  0  0  0  0  0  0  0  0999 V2000
   22.9287   10.6809   31.0553 N      0
   23.0117   12.0318   30.9603 C      0
   22.0987   12.6888   31.7623 N      0
   21.2857   11.7148   32.5073 C      0
   21.8177   10.3909   32.0713 C      0
   23.8097    9.7729   30.2852 C      0
   25.0517    9.3459   31.0593 C      0
   26.2726    9.1029   30.1762 C      0
   23.7547   12.8318   30.2602 C      0
   22.9927   13.7548   29.2472 C      0
   23.9487   14.6898   28.4222 C      0
   24.8667   15.4778   29.3052 N      0
   25.6456   14.6178   30.2182 C      0
   24.7417   13.6938   31.1053 C      0
   25.7706   16.3298   28.4912 C      0
   20.2327   12.1128   33.4854 C      0
   21.4777    8.9139   32.2273 C      0
   20.1487   11.4868   34.7514 C      0
   19.1637   11.8228   35.6794 C      0
   18.1867   12.7998   35.3534 C      0
   18.2507   13.4608   34.0854 C      0
   19.2827   13.1018   33.1413 C      0
   19.2047   10.9729   37.1665 Cl     0
   16.9168   13.2458   36.4385 Cl     0
   20.2397    8.5979   32.8493 C      0
   19.9617    7.2219   33.0183 C      0
   20.8307    6.2649   32.6353 N      0
   21.9777    6.6789   32.0793 C      0
   22.3177    7.9499   31.8683 N      0
   22.9067    5.7759   31.6843 N      0
   23.0397    5.3649   30.3022 C      0
   24.3717    4.7199   30.6722 C      0
   24.2567    5.7909   29.6342 C      0
   25.1777   17.0201   27.8930 H      0
   26.4290   16.8938   29.1503 H      0
   26.3680   15.7002   27.8334 H      0
   17.5238   14.2316   33.8336 H      0
   23.3443   15.3818   27.8374 H      0
   24.5480   14.0755   27.7518 H      0
   24.3828   12.1854   29.6491 H      0
   26.5227   10.0186   29.6425 H      0
   27.1156    8.8028   30.7969 H      0
   26.0508    8.3138   29.4592 H      0
   24.1260   10.2844   29.3774 H      0
   23.2426    8.8815   30.0209 H      0
   25.3825   13.0272   31.6805 H      0
   24.1647   14.3190   31.7851 H      0
   24.8242    8.4240   31.5924 H      0
   25.2961   10.1287   31.7757 H      0
   19.3291   13.5904   32.1692 H      0
   26.2400   15.2540   30.8724 H      0
   26.3073   13.9895   29.6239 H      0
   22.2949   14.3782   29.8043 H      0
   22.4407   13.1241   28.5519 H      0
   19.0168    6.9261   33.4717 H      0
   19.5456    9.3705   33.1768 H      0
   20.8761   10.7185   35.0092 H      0
   22.2551    4.8168   29.7827 H      0
   23.5290    5.3749   32.3786 H      0
   24.6626    6.7812   29.8355 H      0
   24.4099    5.5422   28.5851 H      0
   24.5859    3.6922   30.3828 H      0
   24.8385    4.9312   31.6331 H      0
  1  2  1
  1  5  1
  1  6  1
  2  3  2
  2  9  1
  3  4  1
  4  5  2
  4 16  1
  5 17  1
  6  7  1
  7  8  1
  9 10  1
  9 14  1
 10 11  1
 11 12  1
 12 13  1
 12 15  1
 13 14  1
 16 18  4
 16 22  4
 17 25  4
 17 29  4
 18 19  4
 19 20  4
 19 23  1
 20 21  4
 20 24  1
 21 22  4
 25 26  4
 26 27  4
 27 28  4
 28 29  4
 28 30  1
 30 31  1
 31 32  1
 31 33  1
 32 33  1
 15 34  1
 15 35  1
 15 36  1
 21 37  1
 11 38  1
 11 39  1
  9 40  1
  8 41  1
  8 42  1
  8 43  1
  6 44  1
  6 45  1
 14 46  1
 14 47  1
  7 48  1
  7 49  1
 22 50  1
 13 51  1
 13 52  1
 10 53  1
 10 54  1
 26 55  1
 25 56  1
 18 57  1
 31 58  1
 30 59  1
 33 60  1
 33 61  1
 32 62  1
 32 63  1
M  END
$$$$
