A:PLA415
  --CCDC--021119    3D                              

 40 40  0  0  0  0  0  0  0  0999 V2000
  -30.8980  -38.0307   -6.6429 N      0
  -30.7650  -39.2877   -6.1439 C      0
  -29.6380  -40.1166   -6.6979 C      0
  -31.6530  -39.7246   -5.1460 C      0
  -31.5830  -40.9356   -4.6560 O      0
  -32.6820  -38.8497   -4.7220 C      0
  -33.6050  -39.3497   -3.7320 C      0
  -32.7600  -37.5797   -5.2590 C      0
  -31.8530  -37.1567   -6.2349 C      0
  -33.8360  -36.5758   -4.9160 C      0
  -33.8910  -36.0228   -3.6540 O      0
  -34.9510  -34.8758   -3.2500 P      0
  -35.9310  -35.5648   -2.3000 O      5
  -35.5690  -34.3168   -4.5470 O      5
  -34.0600  -33.7899   -2.5470 O      5
  -33.8870  -40.7096   -3.5910 N      0
  -34.7620  -41.3586   -2.5990 C      0
  -36.2370  -40.9406   -2.6500 C      0
  -34.2480  -41.0696   -1.2030 C      0
  -36.7990  -40.8166   -4.0650 C      0
  -36.7920  -41.7416   -4.9100 O      0
  -37.2770  -39.6707   -4.3490 O      0
  -34.6910  -42.8905   -2.8070 C      0
  -35.3530  -43.6775   -2.1250 O      0
  -34.1090  -43.3185   -3.8340 O      0
  -34.0998  -38.6401   -3.0705 H      0
  -30.6905  -41.0747   -4.2435 H      0
  -31.9110  -36.1542   -6.6561 H      0
  -34.7915  -37.0707   -5.0833 H      0
  -33.7280  -35.7488   -5.6162 H      0
  -34.2435  -39.9939   -1.0333 H      0
  -34.8957  -41.5499   -0.4710 H      0
  -33.2354  -41.4573   -1.1015 H      0
  -33.4325  -41.3286   -4.2547 H      0
  -36.3366  -39.9752   -2.1561 H      0
  -36.8227  -41.6852   -2.1129 H      0
  -30.2470  -37.7286   -7.3607 H      0
  -28.6900  -39.6179   -6.5018 H      0
  -29.6387  -41.0955   -6.2207 H      0
  -29.7696  -40.2365   -7.7723 H      0
  1  2  1
  1  9  1
  2  3  1
  2  4  2
  4  5  1
  4  6  1
  6  7  2
  6  8  1
  7 16  1
  8  9  2
  8 10  1
 10 11  1
 11 12  1
 12 13  4
 12 14  4
 12 15  4
 16 17  1
 17 18  1
 17 19  1
 17 23  1
 18 20  1
 20 21  4
 20 22  4
 23 24  4
 23 25  4
  7 26  1
  5 27  1
  9 28  1
 10 29  1
 10 30  1
 19 31  1
 19 32  1
 19 33  1
 16 34  1
 18 35  1
 18 36  1
  1 37  1
  3 38  1
  3 39  1
  3 40  1
M  CHG  3  13  -1  14  -1  15  -1
M  END
$$$$
B:LLP258
  --CCDC--021119    3D                              

 44 44  0  0  0  0  0  0  0  0999 V2000
  -52.4680  -15.6935  -10.3659 N      0
  -52.7890  -14.4675  -10.0079 C      0
  -53.8850  -13.7755  -10.7529 C      0
  -52.1140  -13.9225   -8.9049 C      0
  -52.4270  -12.7146   -8.5129 O      0
  -51.1230  -14.7045   -8.2769 C      0
  -50.4420  -14.0785   -7.1039 C      0
  -50.8310  -15.9585   -8.7459 C      0
  -51.5300  -16.4674   -9.8259 C      0
  -49.7410  -16.8614   -8.2649 C      0
  -49.4680  -16.8264   -6.9269 O      0
  -48.2700  -17.5234   -6.1939 P      0
  -47.3530  -16.4034   -5.7570 O      5
  -47.5520  -18.5114   -7.2159 O      5
  -48.8780  -18.3104   -5.0300 O      5
  -51.4920  -14.6735   -0.7350 N      0
  -52.0580  -13.3815   -0.3040 C      0
  -52.6700  -12.6776   -1.5220 C      0
  -51.6170  -12.3316   -2.6030 C      0
  -51.7530  -13.2296   -3.8310 C      0
  -50.7050  -12.8896   -4.9080 C      0
  -51.0930  -13.3375   -6.2699 N      0
  -53.0070  -13.4355    0.8530 C      0
  -52.9050  -12.6686    1.8380 O      0
  -49.1937  -17.5125   -8.9450 H      0
  -49.3778  -14.2499   -6.9492 H      0
  -53.3869  -12.6869   -8.2601 H      0
  -54.8072  -14.3463  -10.6548 H      0
  -54.0300  -12.7778  -10.3413 H      0
  -53.6161  -13.6984  -11.8054 H      0
  -51.3209  -17.4615  -10.2183 H      0
  -49.7659  -13.3717   -4.6403 H      0
  -50.5664  -11.8096   -4.9261 H      0
  -52.7480  -13.0997   -4.2541 H      0
  -51.6209  -14.2665   -3.5256 H      0
  -51.2169  -12.7682    0.0159 H      0
  -52.0001  -13.0151   -6.5915 H      0
  -50.6217  -12.4600   -2.1802 H      0
  -51.7511  -11.2946   -2.9073 H      0
  -50.7747  -14.5121   -1.4348 H      0
  -51.0841  -15.1477    0.0644 H      0
  -53.1442  -11.7553   -1.1896 H      0
  -53.4198  -13.3328   -1.9629 H      0
  -53.8137  -14.1669    0.8375 H      0
  1  2  1
  1  9  2
  2  3  1
  2  4  2
  4  5  1
  4  6  1
  6  7  2
  6  8  1
  7 22  1
  8  9  1
  8 10  2
 10 11  1
 11 12  1
 12 13  4
 12 14  4
 12 15  4
 16 17  1
 17 18  1
 17 23  1
 18 19  1
 19 20  1
 20 21  1
 21 22  1
 23 24  2
 10 25  1
  7 26  1
  5 27  1
  3 28  1
  3 29  1
  3 30  1
  9 31  1
 21 32  1
 21 33  1
 20 34  1
 20 35  1
 17 36  1
 22 37  1
 19 38  1
 19 39  1
 16 40  1
 16 41  1
 18 42  1
 18 43  1
 23 44  1
M  CHG  3  13  -1  14  -1  15  -1
M  END
$$$$
