A:SAM1217
  --CCDC--021119    3D                              

 49 51  0  0  0  0  0  0  0  0999 V2000
   14.4774    2.2671   63.0257 N      0
   14.1244    3.6121   62.5287 C      0
   13.5784    4.4502   63.6667 C      0
   12.8594    3.8941   64.5098 O      0
   13.9284    5.6312   63.7507 O      0
   13.1354    3.5321   61.4067 C      0
   13.5724    2.6701   60.2457 C      0
   12.4765    2.8671   58.8077 S      0
   10.9965    1.9831   59.4497 C      0
   13.0615    1.4881   57.7117 C      0
   14.4624    1.6681   57.0857 C      0
   15.0184    0.4640   56.6357 O      0
   14.4895    2.5841   55.8707 C      0
   15.3224    3.6811   56.1667 O      0
   14.9885    1.7111   54.7146 C      0
   15.7125    2.4151   53.7116 O      0
   15.8084    0.6950   55.4526 C      0
   15.9424   -0.6180   54.8096 N      0
   14.9555   -1.4040   54.2206 C      0
   15.4735   -2.5801   53.8936 N      0
   16.7934   -2.5871   54.2516 C      0
   17.8054   -3.5421   54.1236 C      0
   17.5864   -4.7252   53.5536 N      0
   19.0454   -3.1901   54.6186 N      0
   19.2884   -1.9791   55.2016 C      0
   18.3004   -1.0330   55.2876 N      0
   17.0834   -1.3730   54.8186 C      0
   12.9611    4.5406   61.0346 H      0
   12.2057    3.1250   61.8014 H      0
   13.5608    1.6267   60.5574 H      0
   14.5844    2.9519   59.9588 H      0
   15.0296    4.0886   62.1552 H      0
   10.6440    2.4752   60.3550 H      0
   10.2091    1.9996   58.6975 H      0
   11.2601    0.9511   59.6766 H      0
   13.9226   -1.1012   54.0549 H      0
   15.1233    2.0868   57.8432 H      0
   12.3446    1.3815   56.8989 H      0
   13.0764    0.5747   58.3046 H      0
   16.7852    1.1004   55.7124 H      0
   16.5126    2.8403   54.1179 H      0
   18.3420   -5.3984   53.4752 H      0
   16.6639   -4.9539   53.1975 H      0
   20.2776   -1.7629   55.6024 H      0
   14.1371    1.2126   54.2535 H      0
   16.2384    3.3559   56.3699 H      0
   13.4819    2.9367   55.6551 H      0
   13.6500    1.8192   63.4065 H      0
   14.8427    1.7088   62.2608 H      0
  1  2  1
  2  3  1
  2  6  1
  3  4  4
  3  5  4
  6  7  1
  7  8  1
  8  9  1
  8 10  1
 10 11  1
 11 12  1
 11 13  1
 12 17  1
 13 14  1
 13 15  1
 15 16  1
 15 17  1
 17 18  1
 18 19  1
 18 27  1
 19 20  2
 20 21  1
 21 22  4
 21 27  4
 22 23  1
 22 24  4
 24 25  4
 25 26  4
 26 27  4
  6 28  1
  6 29  1
  7 30  1
  7 31  1
  2 32  1
  9 33  1
  9 34  1
  9 35  1
 19 36  1
 11 37  1
 10 38  1
 10 39  1
 17 40  1
 16 41  1
 23 42  1
 23 43  1
 25 44  1
 15 45  1
 14 46  1
 13 47  1
  1 48  1
  1 49  1
M  END
$$$$
A:BIE1218
  --CCDC--021119    3D                              

 28 29  0  0  0  0  0  0  0  0999 V2000
    5.7966   -0.3680   56.1587 O      0
    5.6386    0.7670   56.5857 C      0
    6.1115    1.0360   57.9777 C      0
    5.1706    1.5401   58.9177 C      0
    5.5155    1.6911   60.2727 C      0
    7.3755    0.6200   58.4107 C      0
    8.3745    0.2040   57.4227 N      0
    8.2295    0.8060   56.3537 O      0
    9.3155   -0.4280   57.6777 O      0
    7.7525    0.7370   59.7737 C      0
    8.9405    0.4150   60.2337 O      0
    6.8755    1.2950   60.7237 C      0
    7.1685    1.4461   62.0177 O      0
    4.7776    1.6901   55.8617 C      0
    3.7846    1.1930   55.0306 C      0
    4.9466    3.0841   56.0617 C      0
    4.0866    3.9431   55.3976 C      0
    3.1046    3.4431   54.5346 C      0
    2.9596    2.0611   54.3756 C      0
    4.1704    1.8124   58.5839 H      0
    6.5436    0.9013   62.5643 H      0
    9.6312    0.9672   59.7820 H      0
    2.4562    4.1273   53.9893 H      0
    5.7278    3.4669   56.7166 H      0
    2.1798    1.6732   53.7219 H      0
    4.7949    2.0934   60.9832 H      0
    4.1753    5.0180   55.5485 H      0
    3.6640    0.1184   54.9017 H      0
  1  2  2
  2  3  1
  2 14  1
  3  4  4
  3  6  4
  4  5  4
  5 12  4
  6  7  1
  6 10  4
  7  8  2
  7  9  2
 10 11  1
 10 12  4
 12 13  1
 14 15  4
 14 16  4
 15 19  4
 16 17  4
 17 18  4
 18 19  4
  4 20  1
 13 21  1
 11 22  1
 18 23  1
 16 24  1
 19 25  1
  5 26  1
 17 27  1
 15 28  1
M  END
$$$$
A:BU31219
  --CCDC--021119    3D                              

 16 15  0  0  0  0  0  0  0  0999 V2000
    6.5306   -3.1641   52.1326 O      0
    6.6266   -2.3211   53.2986 C      0
    7.9426   -1.5381   53.2156 C      0
    6.5336   -3.1131   54.6046 C      0
    7.5486   -4.1311   54.6436 O      0
    5.1826   -3.7971   54.8216 C      0
    6.7059   -2.4273   55.4328 H      0
    8.4447   -3.7075   54.5843 H      0
    7.9467   -0.9298   52.3123 H      0
    8.0368   -0.8930   54.0880 H      0
    8.7787   -2.2353   53.1876 H      0
    4.9945   -4.4957   54.0077 H      0
    5.1968   -4.3369   55.7673 H      0
    4.3947   -3.0457   54.8444 H      0
    7.3004   -3.7911   52.1132 H      0
    5.8036   -1.6084   53.2727 H      0
  1  2  1
  2  3  1
  2  4  1
  4  5  1
  4  6  1
  4  7  1
  5  8  1
  3  9  1
  3 10  1
  3 11  1
  6 12  1
  6 13  1
  6 14  1
  1 15  1
  2 16  1
M  END
$$$$
A:BU31220
  --CCDC--021119    3D                              

 16 15  0  0  0  0  0  0  0  0999 V2000
    5.6966  -11.8484   56.5087 O      0
    6.0726  -10.8754   55.5166 C      0
    6.5586   -9.5933   56.1877 C      0
    4.9236  -10.4684   54.5746 C      0
    3.6116  -10.7794   55.0546 O      0
    5.0716  -11.0444   53.1756 C      0
    7.4225   -9.8156   56.8123 H      0
    6.8389   -8.8682   55.4250 H      0
    5.7610   -9.1816   56.8044 H      0
    3.4543  -10.3102   55.9156 H      0
    5.0854  -12.1319   53.2304 H      0
    4.2330  -10.7226   52.5599 H      0
    6.0025  -10.6913   52.7343 H      0
    4.9710   -9.3851   54.4735 H      0
    6.8851  -11.2846   54.9181 H      0
    4.9662  -11.4812   57.0724 H      0
  1  2  1
  2  3  1
  2  4  1
  4  5  1
  4  6  1
  3  7  1
  3  8  1
  3  9  1
  5 10  1
  6 11  1
  6 12  1
  6 13  1
  4 14  1
  2 15  1
  1 16  1
M  END
$$$$
