A:NAG801
  --CCDC--021119    3D                              

 29 29  0  0  0  0  0  0  0  0999 V2000
  -18.8888   83.5293   50.0679 C      0
  -18.2069   84.4263   51.1590 C      0
  -19.0119   85.7243   51.3350 C      0
  -19.1640   86.4243   49.9959 C      0
  -19.8399   85.4743   49.0079 C      0
  -19.9730   86.0673   47.6248 C      0
  -18.9098   83.6803   53.4330 C      0
  -19.4759   84.9563   54.0581 C      0
  -17.9908   83.7633   52.4520 N      0
  -18.3660   86.5983   52.2530 O      0
  -19.9480   87.5943   50.1629 O      0
  -19.0559   84.2803   48.8569 O      0
  -20.8969   85.3193   46.8528 O      0
  -19.2758   82.5904   53.8991 O      0
  -21.7852   85.3314   47.2965 H      0
  -20.8280   85.2103   49.3821 H      0
  -19.5005   88.2035   50.8068 H      0
  -19.9647   85.5517   53.2883 H      0
  -20.1999   84.6932   54.8278 H      0
  -18.6661   85.5327   54.5031 H      0
  -17.4614   86.8262   51.9125 H      0
  -17.0845   83.3375   52.6178 H      0
  -19.0011   86.0536   47.1336 H      0
  -20.3235   87.0950   47.7073 H      0
  -18.1804   86.6992   49.6179 H      0
  -20.0007   85.4773   51.7186 H      0
  -19.8630   83.2009   50.4270 H      0
  -18.2626   82.6604   49.8711 H      0
  -17.2270   84.7071   50.7757 H      0
  1  2  1
  1 12  1
  2  3  1
  2  9  1
  3  4  1
  3 10  1
  4  5  1
  4 11  1
  5  6  1
  5 12  1
  6 13  1
  7  8  1
  7  9  1
  7 14  2
 13 15  1
  5 16  1
 11 17  1
  8 18  1
  8 19  1
  8 20  1
 10 21  1
  9 22  1
  6 23  1
  6 24  1
  4 25  1
  3 26  1
  1 27  1
  1 28  1
  2 29  1
M  END
$$$$
A:NAG802
  --CCDC--021119    3D                              

 29 29  0  0  0  0  0  0  0  0999 V2000
   19.0916   62.5185   33.8063 C      0
   20.6216   62.4005   33.9093 C      0
   21.3426   62.9505   32.6643 C      0
   20.7136   62.3505   31.3862 C      0
   19.2086   62.6175   31.4102 C      0
   18.4956   62.0995   30.1562 C      0
   21.4956   62.3865   36.1534 C      0
   22.0276   63.1695   37.3514 C      0
   21.1056   63.0885   35.0913 N      0
   22.7246   62.6025   32.7443 O      0
   21.2996   62.9015   30.2002 O      0
   18.6236   61.9725   32.5682 O      0
   17.8477   60.8435   30.3592 O      0
   21.4317   61.1505   36.1994 O      0
   21.2543   63.8435   37.7169 H      0
   22.3082   62.4760   38.1427 H      0
   22.8997   63.7475   37.0491 H      0
   17.1670   60.9343   31.0764 H      0
   19.0448   63.6913   31.4876 H      0
   22.8157   61.6143   32.7776 H      0
   20.8730   61.3454   34.0063 H      0
   18.8095   63.5688   33.8630 H      0
   18.6348   61.9749   34.6320 H      0
   21.2443   64.0348   32.6399 H      0
   22.2733   62.7070   30.1909 H      0
   19.2313   61.9856   29.3613 H      0
   17.7471   62.8312   29.8558 H      0
   20.8773   61.2739   31.3888 H      0
   21.1467   64.1025   35.1087 H      0
  1  2  1
  1 12  1
  2  3  1
  2  9  1
  3  4  1
  3 10  1
  4  5  1
  4 11  1
  5  6  1
  5 12  1
  6 13  1
  7  8  1
  7  9  1
  7 14  2
  8 15  1
  8 16  1
  8 17  1
 13 18  1
  5 19  1
 10 20  1
  2 21  1
  1 22  1
  1 23  1
  3 24  1
 11 25  1
  6 26  1
  6 27  1
  4 28  1
  9 29  1
M  END
$$$$
A:HUX803
  --CCDC--021119    3D                              

 42 45  0  0  0  0  0  0  0  0999 V2000
    7.5561   70.9954   69.9617 Cl     0
    6.3741   70.6344   68.8476 C      0
    5.9561   69.5805   65.3115 N      0
    5.5651   69.9495   66.6686 C      0
    4.9711   69.1975   64.4725 C      0
    1.8821   69.4295   66.4715 N      0
    3.2241   69.5115   66.1485 C      0
    6.6661   70.2764   67.4366 C      0
    4.9301   70.6294   69.2767 C      0
    4.2441   69.9115   67.0456 C      0
    5.5152   68.7835   62.9994 C      0
    3.6191   69.1095   64.7545 C      0
    4.5232   67.8795   62.2484 C      0
    4.2783   66.4045   62.9984 C      0
    3.1672   68.5545   62.2194 C      0
    3.3013   66.0885   63.8514 C      0
    2.2992   67.1795   64.1525 C      0
    3.2754   64.6355   64.4685 C      0
    2.6172   68.6015   63.7114 C      0
    4.3905   63.6185   64.1335 C      0
    3.9091   70.3024   68.4636 C      0
    5.2005   66.2110   63.5443 H      0
    4.1816   65.6883   62.1837 H      0
    2.6841   65.7486   63.0211 H      0
    2.1628   67.2011   65.2327 H      0
    1.3629   66.8965   63.6739 H      0
    6.4593   68.2523   63.1105 H      0
    5.6748   69.6895   62.4168 H      0
    4.8737   67.7184   61.2300 H      0
    2.8789   70.3194   68.8162 H      0
    5.3526   64.0164   64.4528 H      0
    4.1949   62.6813   64.6525 H      0
    4.4094   63.4414   63.0591 H      0
    4.6992   70.9065   70.3042 H      0
    2.4837   67.9864   61.5900 H      0
    3.2649   69.5661   61.8283 H      0
    1.2089   69.1337   65.7719 H      0
    1.5703   69.6651   67.4083 H      0
    7.6782   70.2719   67.0347 H      0
    2.3358   64.1815   64.1571 H      0
    3.2790   64.7565   65.5507 H      0
    1.7125   69.2065   63.7486 H      0
  1  2  1
  2  8  4
  2  9  4
  3  4  4
  3  5  4
  4  8  4
  4 10  4
  5 11  1
  5 12  4
  6  7  1
  7 10  4
  7 12  4
  9 21  4
 10 21  4
 11 13  1
 12 19  1
 13 14  1
 13 15  1
 14 16  1
 15 19  1
 16 17  1
 16 18  1
 17 19  1
 18 20  1
 14 22  1
 14 23  1
 16 24  1
 17 25  1
 17 26  1
 11 27  1
 11 28  1
 13 29  1
 21 30  1
 20 31  1
 20 32  1
 20 33  1
  9 34  1
 15 35  1
 15 36  1
  6 37  1
  6 38  1
  8 39  1
 18 40  1
 18 41  1
 19 42  1
M  END
$$$$
