A:PLA415
  --CCDC--012419    3D                              

 40 40  0  0  0  0  0  0  0  0999 V2000
  -30.8980  -38.0307   -6.6429 N      0
  -30.7650  -39.2877   -6.1439 C      0
  -29.6380  -40.1166   -6.6979 C      0
  -31.6530  -39.7246   -5.1460 C      0
  -31.5830  -40.9356   -4.6560 O      0
  -32.6820  -38.8497   -4.7220 C      0
  -33.6050  -39.3497   -3.7320 C      0
  -32.7600  -37.5797   -5.2590 C      0
  -31.8530  -37.1567   -6.2349 C      0
  -33.8360  -36.5758   -4.9160 C      0
  -33.8910  -36.0228   -3.6540 O      0
  -34.9510  -34.8758   -3.2500 P      0
  -35.9310  -35.5648   -2.3000 O      5
  -35.5690  -34.3168   -4.5470 O      5
  -34.0600  -33.7899   -2.5470 O      5
  -33.8870  -40.7096   -3.5910 N      0
  -34.7620  -41.3586   -2.5990 C      0
  -36.2370  -40.9406   -2.6500 C      0
  -34.2480  -41.0696   -1.2030 C      0
  -36.7990  -40.8166   -4.0650 C      0
  -36.7920  -41.7416   -4.9100 O      0
  -37.2770  -39.6707   -4.3490 O      0
  -34.6910  -42.8905   -2.8070 C      0
  -35.3530  -43.6775   -2.1250 O      0
  -34.1090  -43.3185   -3.8340 O      0
  -36.3366  -39.9752   -2.1561 H      0
  -36.8227  -41.6852   -2.1129 H      0
  -34.2435  -39.9939   -1.0333 H      0
  -34.8957  -41.5499   -0.4710 H      0
  -33.2354  -41.4573   -1.1015 H      0
  -33.4325  -41.3286   -4.2547 H      0
  -34.7915  -37.0707   -5.0833 H      0
  -33.7280  -35.7488   -5.6162 H      0
  -31.9110  -36.1542   -6.6561 H      0
  -34.0998  -38.6401   -3.0705 H      0
  -30.6905  -41.0747   -4.2435 H      0
  -28.6900  -39.6179   -6.5018 H      0
  -29.6387  -41.0955   -6.2207 H      0
  -29.7696  -40.2365   -7.7723 H      0
  -30.2470  -37.7286   -7.3607 H      0
  1  2  1
  1  9  1
  2  3  1
  2  4  2
  4  5  1
  4  6  1
  6  7  2
  6  8  1
  7 16  1
  8  9  2
  8 10  1
 10 11  1
 11 12  1
 12 13  4
 12 14  4
 12 15  4
 16 17  1
 17 18  1
 17 19  1
 17 23  1
 18 20  1
 20 21  4
 20 22  4
 23 24  4
 23 25  4
 18 26  1
 18 27  1
 19 28  1
 19 29  1
 19 30  1
 16 31  1
 10 32  1
 10 33  1
  9 34  1
  7 35  1
  5 36  1
  3 37  1
  3 38  1
  3 39  1
  1 40  1
M  CHG  3  13  -1  14  -1  15  -1
M  END
$$$$
