A:IPP362
  --CCDC--012419    3D                              

 40 41  0  0  0  0  0  0  0  0999 V2000
   22.4529   55.6214   24.2269 P      0
   23.8479   56.2653   24.4810 O      0
   22.4009   54.4764   25.2750 O      0
   21.1769   56.4453   24.5380 C      0
   19.8589   55.9964   24.4510 N      0
   18.8999   56.2103   23.6119 C      0
   19.1499   55.6574   23.4189 C      0
   18.9149   57.1263   22.7689 O      0
   19.5289   55.8374   22.2469 O      0
   17.5730   55.9214   23.4079 C      0
   17.8340   55.2304   23.1199 C      0
   16.4260   56.4013   24.2769 C      0
   16.6210   56.0964   22.8319 C      0
   16.4040   57.6803   24.8250 C      0
   16.6640   57.4823   22.9459 C      0
   15.3290   58.1223   25.5960 C      0
   15.5550   58.2713   22.6399 C      0
   14.2730   57.2383   25.8360 C      0
   14.3950   57.6413   22.1789 C      0
   12.6951   57.9943   26.9901 I      0
   12.7900   58.9083   21.7218 I      0
   14.2730   55.9564   25.3090 C      0
   14.3200   56.2603   22.0719 C      0
   15.3640   55.5274   24.5350 C      0
   15.4340   55.4804   22.4229 C      0
   15.5919   59.3533   22.7574 H      0
   15.3833   54.5144   24.1356 H      0
   13.4058   55.7854   21.7189 H      0
   15.3733   54.3941   22.3765 H      0
   24.5573   55.5852   24.3388 H      0
   17.5827   57.9613   23.2811 H      0
   20.3765   55.3433   22.0935 H      0
   19.6952   57.0087   22.1661 H      0
   13.4340   55.2871   25.4935 H      0
   15.3127   59.1328   26.0017 H      0
   17.2440   58.3504   24.6480 H      0
   21.2271   57.3069   23.8738 H      0
   21.2966   56.7745   25.5691 H      0
   17.6727   54.1537   23.0933 H      0
   17.3236   55.2962   22.5518 H      0
  1  2  1
  1  3  2
  1  4  1
  4  5  1
  5  6  1
  5  7  1
  6  8  1
  6 10  2
  7  9  1
  7 11  2
 10 12  1
 11 13  1
 12 14  4
 12 24  4
 13 15  4
 13 25  4
 14 16  4
 15 17  4
 16 18  4
 17 19  4
 18 20  1
 18 22  4
 19 21  1
 19 23  4
 22 24  4
 23 25  4
 17 26  1
 24 27  1
 23 28  1
 25 29  1
  2 30  1
 15 31  1
  9 32  1
  8 33  1
 22 34  1
 16 35  1
 14 36  1
  4 37  1
  4 38  1
 11 39  1
 10 40  1
M  END
$$$$
