@<TRIPOS>MOLECULE
B:NVA355
     5     4     1     0     0
SMALL
NO_CHARGES
****
Generated from the CSD

@<TRIPOS>ATOM
     1 C        3.9130 -21.0750   4.7130   C.3       1 NVA355   0.0000
     2 H1       5.0020 -21.0750   4.7130   H         1 NVA355   0.0000
     3 H2       3.5500 -20.1858   4.1996   H         1 NVA355   0.0000
     4 H3       3.5500 -21.9642   4.1996   H         1 NVA355   0.0000
     5 H4       3.5500 -21.0750   5.7397   H         1 NVA355   0.0000
@<TRIPOS>BOND
     1     1     2    1
     2     1     3    1
     3     1     4    1
     4     1     5    1
@<TRIPOS>SUBSTRUCTURE
     1 NVA355      1 GROUP             0 B     NVA     0  
