@<TRIPOS>MOLECULE
D:IMO440
     5     4     1     0     0
SMALL
NO_CHARGES
****
Generated from the CSD

@<TRIPOS>ATOM
     1 C8     -39.3430  36.9060  56.1970   C.3       1 IMO440   0.0000
     2 H1     -38.2540  36.9060  56.1970   H         1 IMO440   0.0000
     3 H2     -39.7060  37.7952  55.6836   H         1 IMO440   0.0000
     4 H3     -39.7060  36.0168  55.6836   H         1 IMO440   0.0000
     5 H4     -39.7060  36.9060  57.2237   H         1 IMO440   0.0000
@<TRIPOS>BOND
     1     1     2    1
     2     1     3    1
     3     1     4    1
     4     1     5    1
@<TRIPOS>SUBSTRUCTURE
     1 IMO440      1 GROUP             0 D     IMO     0  
