@<TRIPOS>MOLECULE
G:PAL1312
     5     4     1     0     0
SMALL
NO_CHARGES
****
Generated from the CSD

@<TRIPOS>ATOM
     1 C5      73.3670  18.6990  60.3770   C.3       1 PAL1312   0.0000
     2 H1      74.4560  18.6990  60.3770   H         1 PAL1312   0.0000
     3 H2      73.0040  19.5882  59.8636   H         1 PAL1312   0.0000
     4 H3      73.0040  17.8098  59.8636   H         1 PAL1312   0.0000
     5 H4      73.0040  18.6990  61.4037   H         1 PAL1312   0.0000
@<TRIPOS>BOND
     1     1     2    1
     2     1     3    1
     3     1     4    1
     4     1     5    1
@<TRIPOS>SUBSTRUCTURE
     1 PAL1312     1 GROUP             0 G     PAL     0  
