A:HUX803
  --CCDC--012419    3D                              

 42 45  0  0  0  0  0  0  0  0999 V2000
    7.5561   70.9954   69.9617 Cl     0
    6.3741   70.6344   68.8476 C      0
    5.9561   69.5805   65.3115 N      0
    5.5651   69.9495   66.6686 C      0
    4.9711   69.1975   64.4725 C      0
    1.8821   69.4295   66.4715 N      0
    3.2241   69.5115   66.1485 C      0
    6.6661   70.2764   67.4366 C      0
    4.9301   70.6294   69.2767 C      0
    4.2441   69.9115   67.0456 C      0
    5.5152   68.7835   62.9994 C      0
    3.6191   69.1095   64.7545 C      0
    4.5232   67.8795   62.2484 C      0
    4.2783   66.4045   62.9984 C      0
    3.1672   68.5545   62.2194 C      0
    3.3013   66.0885   63.8514 C      0
    2.2992   67.1795   64.1525 C      0
    3.2754   64.6355   64.4685 C      0
    2.6172   68.6015   63.7114 C      0
    4.3905   63.6185   64.1335 C      0
    3.9091   70.3024   68.4636 C      0
    1.7125   69.2065   63.7486 H      0
    2.3358   64.1815   64.1571 H      0
    3.2790   64.7565   65.5507 H      0
    5.3526   64.0164   64.4528 H      0
    4.1949   62.6813   64.6525 H      0
    4.4094   63.4414   63.0591 H      0
    1.2089   69.1337   65.7719 H      0
    1.5703   69.6651   67.4083 H      0
    7.6782   70.2719   67.0347 H      0
    2.1628   67.2011   65.2327 H      0
    1.3629   66.8965   63.6739 H      0
    2.6841   65.7486   63.0211 H      0
    4.6992   70.9065   70.3042 H      0
    5.2005   66.2110   63.5443 H      0
    4.1816   65.6883   62.1837 H      0
    2.4837   67.9864   61.5900 H      0
    3.2649   69.5661   61.8283 H      0
    4.8737   67.7184   61.2300 H      0
    6.4593   68.2523   63.1105 H      0
    5.6748   69.6895   62.4168 H      0
    2.8789   70.3194   68.8162 H      0
  1  2  1
  2  8  4
  2  9  4
  3  4  4
  3  5  4
  4  8  4
  4 10  4
  5 11  1
  5 12  4
  6  7  1
  7 10  4
  7 12  4
  9 21  4
 10 21  4
 11 13  1
 12 19  1
 13 14  1
 13 15  1
 14 16  1
 15 19  1
 16 17  1
 16 18  1
 17 19  1
 18 20  1
 19 22  1
 18 23  1
 18 24  1
 20 25  1
 20 26  1
 20 27  1
  6 28  1
  6 29  1
  8 30  1
 17 31  1
 17 32  1
 16 33  1
  9 34  1
 14 35  1
 14 36  1
 15 37  1
 15 38  1
 13 39  1
 11 40  1
 11 41  1
 21 42  1
M  END
$$$$
