A:PIM470
  --CCDC--012419    3D                              

 19 20  0  0  0  0  0  0  0  0999 V2000
  -15.2350   -3.0389   65.0444 N      0
  -15.4300   -3.9169   63.9813 C      0
  -16.3410   -4.6899   64.2753 N      0
  -16.8060   -4.4169   65.4814 C      0
  -16.1270   -3.3829   65.9884 C      0
  -16.2610   -2.6770   67.3174 C      0
  -15.9760   -1.2740   67.3804 C      0
  -16.1070   -0.5960   68.6535 C      0
  -16.5130   -1.3420   69.7875 C      0
  -16.7950   -2.7320   69.7165 C      0
  -16.6550   -3.3719   68.4455 C      0
  -17.6133   -4.9491   65.9824 H      0
  -15.8969    0.4692   68.7377 H      0
  -14.8704   -3.9191   63.0471 H      0
  -15.6673   -0.7289   66.4896 H      0
  -14.5540   -2.2880   65.0959 H      0
  -16.8648   -4.4374   68.3639 H      0
  -17.1065   -3.2902   70.5981 H      0
  -16.6120   -0.8327   70.7450 H      0
  1  2  1
  1  5  1
  2  3  2
  3  4  1
  4  5  2
  5  6  1
  6  7  4
  6 11  4
  7  8  4
  8  9  4
  9 10  4
 10 11  4
  4 12  1
  8 13  1
  2 14  1
  7 15  1
  1 16  1
 11 17  1
 10 18  1
  9 19  1
M  END
$$$$
