@<TRIPOS>MOLECULE
C:PIM470
     5     4     1     0     0
SMALL
NO_CHARGES
****
Generated from the CSD

@<TRIPOS>ATOM
     1 C11    -16.6550  -3.3720  68.4430   C.3       1 PIM470   0.0000
     2 H1     -15.5660  -3.3720  68.4430   H         1 PIM470   0.0000
     3 H2     -17.0180  -2.4828  67.9296   H         1 PIM470   0.0000
     4 H3     -17.0180  -4.2612  67.9296   H         1 PIM470   0.0000
     5 H4     -17.0180  -3.3720  69.4697   H         1 PIM470   0.0000
@<TRIPOS>BOND
     1     1     2    1
     2     1     3    1
     3     1     4    1
     4     1     5    1
@<TRIPOS>SUBSTRUCTURE
     1 PIM470      1 GROUP             0 C     PIM     0  
