@<TRIPOS>MOLECULE
B:ASC950
     5     4     1     0     0
SMALL
NO_CHARGES
****
Generated from the CSD

@<TRIPOS>ATOM
     1 C6       6.1170  -7.6770  31.4470   C.3       1 ASC950   0.0000
     2 H1       7.2060  -7.6770  31.4470   H         1 ASC950   0.0000
     3 H2       5.7540  -6.7878  30.9336   H         1 ASC950   0.0000
     4 H3       5.7540  -8.5662  30.9336   H         1 ASC950   0.0000
     5 H4       5.7540  -7.6770  32.4737   H         1 ASC950   0.0000
@<TRIPOS>BOND
     1     1     2    1
     2     1     3    1
     3     1     4    1
     4     1     5    1
@<TRIPOS>SUBSTRUCTURE
     1 ASC950      1 GROUP             0 B     ASC     0  
