A:EFZ999
  --CCDC--012419    3D                              

 28 30  0  0  0  0  0  0  0  0999 V2000
   -2.5520  -35.3584   21.8757 Cl     0
    3.1030  -39.5346   20.6536 F      0
    1.2910  -39.2216   21.7337 F      0
    1.2330  -39.5356   19.6266 F      0
    3.4730  -37.3555   17.0975 O      0
    2.9980  -37.1995   19.2626 O      0
    1.2850  -37.0825   17.6756 N      0
    0.3440  -36.6375   18.6626 C      0
   -0.9260  -36.1444   18.3086 C      0
   -1.8100  -35.7444   19.3246 C      0
   -1.4490  -35.8494   20.6566 C      0
   -0.2120  -36.3405   21.0187 C      0
    0.6660  -36.7775   20.0196 C      0
    2.0460  -37.3875   20.3666 C      0
    2.6380  -36.8115   21.5937 C      0
    3.0920  -36.3415   22.5627 C      0
    3.7560  -35.6474   23.9678 C      0
    4.1860  -34.5444   23.6197 C      0
    3.0560  -34.6574   24.2118 C      0
    1.9130  -38.9396   20.5966 C      0
    2.6380  -37.2205   17.9356 C      0
    0.9441  -37.3060   16.7460 H      0
   -1.2191  -36.0741   17.2621 H      0
   -2.7894  -35.3476   19.0614 H      0
    0.0778  -36.3876   22.0673 H      0
    4.2266  -36.2411   24.7500 H      0
    4.9555  -33.9303   23.1544 H      0
    2.1514  -34.2125   24.6237 H      0
  1 11  1
  2 20  1
  3 20  1
  4 20  1
  5 21  2
  6 14  1
  6 21  1
  7  8  1
  7 21  1
  8  9  4
  8 13  4
  9 10  4
 10 11  4
 11 12  4
 12 13  4
 13 14  1
 14 15  1
 14 20  1
 15 16  3
 16 17  1
 17 18  1
 17 19  1
 18 19  2
  7 22  1
  9 23  1
 10 24  1
 12 25  1
 17 26  1
 18 27  1
 19 28  1
M  END
$$$$
