B:A3P5001
  --CCDC--012419    3D                              

 38 40  0  0  0  0  0  0  0  0999 V2000
   11.7906    8.8898   27.1525 P      0
   10.7017    7.8128   27.4275 O      5
   13.1295    8.4558   27.8105 O      5
   11.3326   10.2698   27.7265 O      5
   10.5882   10.3008   20.0376 P      0
   10.5002   11.8558   20.0906 O      5
    9.2043    9.7048   19.7056 O      5
   11.6232    9.8568   18.9577 O      5
   11.0951    9.7008   21.4236 O      0
   11.4350   10.5348   22.6026 C      0
   12.6839    9.9568   23.3346 C      0
   13.8459   10.6858   22.9196 O      0
   12.6508   10.0988   24.8696 C      0
   11.9737    8.9708   25.5695 O      0
   14.1387   10.1098   25.2235 C      0
   14.6287    8.7838   25.4905 O      0
   14.8278   10.7028   23.9786 C      0
   15.5807   11.9598   24.1566 N      0
   15.0287   13.1027   24.6826 C      0
   15.9757   14.0897   24.7226 N      0
   17.1317   13.5557   24.2146 C      0
   18.4056   14.0057   23.9906 C      0
   18.7536   15.2777   24.3006 N      0
   19.3516   13.1957   23.4556 N      0
   19.0857   11.9098   23.1196 C      0
   17.8657   11.3778   23.3036 N      0
   16.9007   12.2028   23.8496 C      0
   10.5900   10.5467   23.2894 H      0
   11.6498   11.5505   22.2738 H      0
   15.5729    9.9640   23.6872 H      0
   12.8031    8.9068   23.0714 H      0
   12.1908   11.0453   25.1496 H      0
   14.3116   10.7516   26.0862 H      0
   14.5019    8.2159   24.6859 H      0
   13.9973   13.2070   25.0160 H      0
   19.7007   15.6006   24.1303 H      0
   18.0672   15.9078   24.7031 H      0
   19.8767   11.2955   22.6919 H      0
  1  2  4
  1  3  4
  1  4  4
  1 14  1
  5  6  4
  5  7  4
  5  8  4
  5  9  1
  9 10  1
 10 11  1
 11 12  1
 11 13  1
 12 17  1
 13 14  1
 13 15  1
 15 16  1
 15 17  1
 17 18  1
 18 19  1
 18 27  1
 19 20  2
 20 21  1
 21 22  4
 21 27  4
 22 23  1
 22 24  4
 24 25  4
 25 26  4
 26 27  4
 10 28  1
 10 29  1
 17 30  1
 11 31  1
 13 32  1
 15 33  1
 16 34  1
 19 35  1
 23 36  1
 23 37  1
 25 38  1
M  CHG  6   2  -1   3  -1   4  -1   6  -1   7  -1   8  -1
M  END
$$$$
