A:PAI300
  --CCDC--012419    3D                              

 41 40  0  0  0  0  0  0  0  0999 V2000
    7.4990  101.7063   79.8131 P      0
    6.3675  101.5174   80.9896 O      5
    7.5060  100.3728   78.9014 O      5
    7.1881  103.0887   78.8395 O      0
    8.9484  101.8692   80.5238 O      5
    7.1212  104.5152   79.3462 C      0
    6.5564  105.6717   78.3596 C      0
    6.7943  106.9192   79.0324 O      0
    7.2111  105.7487   76.8882 C      0
    6.9172  104.4612   76.3015 O      0
    6.7013  106.9032   75.7957 C      0
    7.0712  106.3285   74.5072 O      0
    7.4550  108.3356   75.7967 C      0
    7.1771  109.0724   76.9742 O      0
    7.1381  109.3632   74.6271 C      0
    5.7117  109.6581   74.2483 N      0
    5.4578  110.1039   72.8089 C      0
    5.1719  108.9624   71.7923 C      0
    4.1283  108.2167   71.9232 O      0
    5.9566  108.8315   70.8357 O      0
    5.0510  110.6087   75.2389 C      0
    5.5868  112.2911   75.0620 P      0
    4.5322  112.9358   74.0194 O      5
    5.5858  113.1507   76.4364 O      5
    7.0572  112.2531   74.4462 O      5
    5.6226  107.0388   75.8583 H      0
    7.6282  108.9818   73.7326 H      0
    7.5900  110.3122   74.9119 H      0
    5.4810  105.5379   78.2518 H      0
    8.2910  105.8356   76.9986 H      0
    8.1331  104.8019   79.6284 H      0
    6.4853  104.5107   80.2303 H      0
    5.9335  104.3308   76.2651 H      0
    7.7682  107.0287   79.1921 H      0
    6.3381  110.6455   72.4657 H      0
    4.5984  110.7728   72.8120 H      0
    7.4827  108.5577   77.7665 H      0
    8.5263  108.1408   75.7787 H      0
    6.6062  105.4594   74.3867 H      0
    5.2873  110.2751   76.2482 H      0
    3.9732  110.5715   75.0873 H      0
  1  2  4
  1  3  4
  1  4  1
  1  5  4
  4  6  1
  6  7  1
  7  8  1
  7  9  1
  9 10  1
  9 11  1
 11 12  1
 11 13  1
 13 14  1
 13 15  1
 15 16  1
 16 17  1
 16 21  1
 17 18  1
 18 19  4
 18 20  4
 21 22  1
 22 23  4
 22 24  4
 22 25  4
 11 26  1
 15 27  1
 15 28  1
  7 29  1
  9 30  1
  6 31  1
  6 32  1
 10 33  1
  8 34  1
 17 35  1
 17 36  1
 14 37  1
 13 38  1
 12 39  1
 21 40  1
 21 41  1
M  CHG  6   2  -1   3  -1   5  -1  23  -1  24  -1  25  -1
M  END
$$$$
