@<TRIPOS>MOLECULE
G:NFH1448
     5     4     1     0     0
SMALL
NO_CHARGES
****
Generated from the CSD

@<TRIPOS>ATOM
     1 CN2     66.3500  31.1370 122.9960   C.3       1 NFH1448   0.0000
     2 H1      67.4390  31.1370 122.9960   H         1 NFH1448   0.0000
     3 H2      65.9870  32.0262 122.4826   H         1 NFH1448   0.0000
     4 H3      65.9870  30.2478 122.4826   H         1 NFH1448   0.0000
     5 H4      65.9870  31.1370 124.0227   H         1 NFH1448   0.0000
@<TRIPOS>BOND
     1     1     2    1
     2     1     3    1
     3     1     4    1
     4     1     5    1
@<TRIPOS>SUBSTRUCTURE
     1 NFH1448     1 GROUP             0 G     NFH     0  
