A:EST600
  --CCDC--012419    3D                              

 44 47  0  0  0  0  0  0  0  0999 V2000
   -7.5870   -4.2901   15.6065 C      0
   -6.7719   -4.0811   16.7235 C      0
   -5.4179   -4.2171   16.6425 C      0
   -4.5769   -4.0101   17.7514 O      0
   -4.7939   -4.5801   15.4305 C      0
   -5.6090   -4.7841   14.3125 C      0
   -4.8610   -5.0871   13.0206 C      0
   -5.7660   -5.5341   11.8906 C      0
   -7.0270   -4.6691   11.8646 C      0
   -7.8390   -4.8851   13.1396 C      0
   -7.0010   -4.6541   14.3535 C      0
   -9.1420   -4.0741   13.0436 C      0
   -9.9600   -4.6071   11.8396 C      0
   -9.1520   -4.3831   10.5577 C      0
   -7.8140   -5.1541   10.6877 C      0
   -7.2160   -4.9031    9.2997 C      0
   -8.4190   -5.2951    8.3817 C      0
   -9.6670   -5.0841    9.2927 C      0
  -10.7490   -4.4361    8.6387 O      0
   -8.9850   -2.9330   10.1667 C      0
  -10.0170   -6.0709    9.5920 H      0
   -6.3499   -5.5373    9.1167 H      0
   -6.9358   -3.8591    9.1677 H      0
   -6.7690   -3.6176   11.7471 H      0
   -8.1254   -5.9356   13.1532 H      0
   -8.0201   -6.2170   10.8048 H      0
  -10.4703   -3.5240    8.3623 H      0
   -8.4687   -2.3994   10.9633 H      0
   -8.4014   -2.8693    9.2495 H      0
   -9.9646   -2.4854   10.0055 H      0
   -4.8193   -4.6465   18.4741 H      0
   -4.1387   -5.8779   13.2175 H      0
   -4.3361   -4.1861   12.7064 H      0
  -10.9063   -4.0722   11.7743 H      0
  -10.1526   -5.6709   11.9700 H      0
   -3.7131   -4.6976   15.3676 H      0
   -8.3420   -6.3338    8.0639 H      0
   -8.4648   -4.6498    7.5057 H      0
   -7.2265   -3.8051   17.6738 H      0
   -8.6667   -4.1758   15.6906 H      0
   -6.0451   -6.5759   12.0414 H      0
   -5.2385   -5.4330   10.9433 H      0
   -8.9098   -3.0207   12.8935 H      0
   -9.7174   -4.1919   13.9606 H      0
  1  2  4
  1 11  4
  2  3  4
  3  4  1
  3  5  4
  5  6  4
  6  7  1
  6 11  4
  7  8  1
  8  9  1
  9 10  1
  9 15  1
 10 11  1
 10 12  1
 12 13  1
 13 14  1
 14 15  1
 14 18  1
 14 20  1
 15 16  1
 16 17  1
 17 18  1
 18 19  1
 18 21  1
 16 22  1
 16 23  1
  9 24  1
 10 25  1
 15 26  1
 19 27  1
 20 28  1
 20 29  1
 20 30  1
  4 31  1
  7 32  1
  7 33  1
 13 34  1
 13 35  1
  5 36  1
 17 37  1
 17 38  1
  2 39  1
  1 40  1
  8 41  1
  8 42  1
 12 43  1
 12 44  1
M  END
$$$$
