@<TRIPOS>MOLECULE
E:EST600
     5     4     1     0     0
SMALL
NO_CHARGES
****
Generated from the CSD

@<TRIPOS>ATOM
     1 C18     -8.9850  -2.9330  10.1670   C.3       1 EST600   0.0000
     2 H1      -7.8960  -2.9330  10.1670   H         1 EST600   0.0000
     3 H2      -9.3480  -2.0438   9.6536   H         1 EST600   0.0000
     4 H3      -9.3480  -3.8222   9.6536   H         1 EST600   0.0000
     5 H4      -9.3480  -2.9330  11.1937   H         1 EST600   0.0000
@<TRIPOS>BOND
     1     1     2    1
     2     1     3    1
     3     1     4    1
     4     1     5    1
@<TRIPOS>SUBSTRUCTURE
     1 EST600      1 GROUP             0 E     EST     0  
