C:ORN903
  --CCDC--012419    3D                              

 21 20  0  0  0  0  0  0  0  0999 V2000
   -1.9000    5.2321   -0.4810 N      0
   -2.2430    5.0341   -1.9251 C      0
   -1.0530    5.5021   -2.7641 C      0
    0.2650    4.9251   -2.3731 C      0
    1.3740    5.2851   -3.3231 C      0
    2.6670    4.6981   -2.9181 N      3
   -2.4870    3.5360   -2.2381 C      0
   -2.3650    2.6850   -1.2540 O      0
   -2.8150    3.0990   -3.4461 O      0
   -0.9854    6.5856   -2.6781 H      0
   -1.2449    5.2316   -3.8014 H      0
   -1.7156    6.2152   -0.3088 H      0
   -2.6773    4.9274    0.0962 H      0
   -3.1281    5.6154   -2.1795 H      0
    0.1730    3.8404   -2.3434 H      0
    0.5244    5.2946   -1.3821 H      0
    1.4742    6.3691   -3.3508 H      0
    1.1181    4.9186   -4.3162 H      0
    2.5870    3.6865   -2.8954 H      0
    3.3839    4.9659   -3.5849 H      0
    2.9190    5.0384   -1.9956 H      0
  1  2  1
  2  3  1
  2  7  1
  3  4  1
  4  5  1
  5  6  1
  7  8  4
  7  9  4
  3 10  1
  3 11  1
  1 12  1
  1 13  1
  2 14  1
  4 15  1
  4 16  1
  5 17  1
  5 18  1
  6 19  1
  6 20  1
  6 21  1
M  CHG  1   6   1
M  END
$$$$
