@<TRIPOS>MOLECULE
N:ORN903
     5     4     1     0     0
SMALL
NO_CHARGES
****
Generated from the CSD

@<TRIPOS>ATOM
     1 C       -2.4870   3.5360  -2.2380   C.3       1 ORN903   0.0000
     2 H1      -1.3980   3.5360  -2.2380   H         1 ORN903   0.0000
     3 H2      -2.8500   4.4252  -2.7514   H         1 ORN903   0.0000
     4 H3      -2.8500   2.6468  -2.7514   H         1 ORN903   0.0000
     5 H4      -2.8500   3.5360  -1.2113   H         1 ORN903   0.0000
@<TRIPOS>BOND
     1     1     2    1
     2     1     3    1
     3     1     4    1
     4     1     5    1
@<TRIPOS>SUBSTRUCTURE
     1 ORN903      1 GROUP             0 N     ORN     0  
