@<TRIPOS>MOLECULE
C:XK2263
     5     4     1     0     0
SMALL
NO_CHARGES
****
Generated from the CSD

@<TRIPOS>ATOM
     1 C79     -8.5740  16.2520  31.9620   C.3       1 XK2263   0.0000
     2 H1      -7.4850  16.2520  31.9620   H         1 XK2263   0.0000
     3 H2      -8.9370  17.1412  31.4486   H         1 XK2263   0.0000
     4 H3      -8.9370  15.3628  31.4486   H         1 XK2263   0.0000
     5 H4      -8.9370  16.2520  32.9887   H         1 XK2263   0.0000
@<TRIPOS>BOND
     1     1     2    1
     2     1     3    1
     3     1     4    1
     4     1     5    1
@<TRIPOS>SUBSTRUCTURE
     1 XK2263      1 GROUP             0 C     XK2     0  
