A:XK2263
  --CCDC--012419    3D                              

 84 90  0  0  0  0  0  0  0  0999 V2000
   -8.6117   15.0600   27.9539 C      0
   -7.9397   14.0390   27.9409 O      0
   -8.4617   15.9230   26.9049 N      0
   -7.8547   15.3510   25.6959 C      0
   -8.6278   17.3880   27.0109 C      0
  -10.0298   17.9100   27.2979 C      0
   -9.9299   19.2741   26.9979 O      0
  -10.4618   17.6450   28.7329 C      0
  -11.6929   18.2540   29.0199 O      0
  -10.6578   16.1520   28.9639 C      0
   -9.4617   15.2940   29.0039 N      0
   -9.2717   14.4910   30.2149 C      0
   -8.3817   15.7300   24.3359 C      0
   -9.7698   15.7120   24.0219 C      0
  -10.1958   15.9190   22.6939 C      0
   -9.2198   16.1520   21.6929 C      0
   -9.6088   16.3040   20.3489 C      0
   -8.6268   16.5080   19.3489 C      0
   -7.2637   16.5620   19.6619 C      0
   -6.8607   16.4030   21.0059 C      0
   -7.8287   16.1920   22.0219 C      0
   -7.4087   15.9830   23.3459 C      0
   -7.4768   17.9720   27.8939 C      0
   -6.1247   17.8900   27.1929 C      0
   -5.2267   16.8260   27.4939 C      0
   -4.0296   16.6670   26.7499 C      0
   -3.7307   17.5850   25.7229 C      0
   -4.6077   18.6600   25.4319 C      0
   -5.8037   18.8110   26.1629 C      0
  -11.7128   15.4510   28.0789 C      0
  -12.3108   14.2480   28.7789 C      0
  -13.1678   14.4220   29.8979 C      0
  -13.7008   13.2810   30.5419 C      0
  -13.3747   11.9820   30.0579 C      0
  -12.5297   11.8140   28.9439 C      0
  -11.9927   12.9540   28.3039 C      0
   -9.3747   15.1480   31.5709 C      0
  -10.2287   14.4920   32.4769 C      0
  -10.2727   14.9260   33.7999 C      0
  -11.1568   14.2820   34.7089 C      0
  -11.2458   14.7480   36.0439 C      0
  -10.4358   15.8370   36.4509 C      0
   -9.5408   16.4750   35.5529 C      0
   -9.4558   16.0280   34.2119 C      0
   -8.6058   16.6910   33.2879 C      0
   -8.5747   16.2520   31.9619 C      0
  -11.9283   14.2751   36.7485 H      0
   -7.9877   17.5286   33.6077 H      0
  -10.5016   16.1932   37.4778 H      0
   -9.7022   18.0217   29.4163 H      0
   -8.9225   17.3043   35.8934 H      0
   -7.9483   14.2693   25.7789 H      0
   -6.8013   15.6266   25.7127 H      0
   -9.6699   19.3854   26.0460 H      0
  -11.0674   16.0881   29.9709 H      0
   -8.2767   14.0530   30.1507 H      0
  -10.0191   13.6994   30.1897 H      0
  -10.8462   13.6573   32.1485 H      0
   -2.8146   17.4670   25.1459 H      0
   -4.3577   19.3690   24.6440 H      0
   -7.9403   16.7544   31.2331 H      0
   -5.4604   16.1313   28.2992 H      0
  -10.5033   15.5383   24.8079 H      0
  -12.2924   10.8157   28.5792 H      0
  -11.3339   12.8363   27.4448 H      0
   -8.4071   17.7542   26.0093 H      0
  -10.7368   17.4409   26.6153 H      0
  -11.7607   13.4371   34.3813 H      0
  -11.2551   15.9003   22.4420 H      0
   -6.4804   19.6339   25.9370 H      0
  -11.2389   15.1237   27.1547 H      0
  -12.5081   16.1583   27.8483 H      0
   -6.3511   16.0157   23.6036 H      0
  -10.6629   16.2649   20.0784 H      0
   -8.9395   16.6256   18.3125 H      0
   -3.3495   15.8454   26.9695 H      0
   -6.5239   16.7245   18.8795 H      0
   -5.8034   16.4425   21.2636 H      0
  -13.4116   15.4213   30.2556 H      0
  -12.3898   17.8950   28.4104 H      0
   -7.4259   17.4081   28.8241 H      0
   -7.6966   19.0157   28.1138 H      0
  -14.3571   13.3953   31.4034 H      0
  -13.7851   11.1053   30.5568 H      0
  1  2  2
  1  3  1
  1 11  1
  3  4  1
  3  5  1
  4 13  1
  5  6  1
  5 23  1
  6  7  1
  6  8  1
  8  9  1
  8 10  1
 10 11  1
 10 30  1
 11 12  1
 12 37  1
 13 14  4
 13 22  4
 14 15  4
 15 16  4
 16 17  4
 16 21  4
 17 18  4
 18 19  4
 19 20  4
 20 21  4
 21 22  4
 23 24  1
 24 25  4
 24 29  4
 25 26  4
 26 27  4
 27 28  4
 28 29  4
 30 31  1
 31 32  4
 31 36  4
 32 33  4
 33 34  4
 34 35  4
 35 36  4
 37 38  4
 37 46  4
 38 39  4
 39 40  4
 39 44  4
 40 41  4
 41 42  4
 42 43  4
 43 44  4
 44 45  4
 45 46  4
 41 47  1
 45 48  1
 42 49  1
  8 50  1
 43 51  1
  4 52  1
  4 53  1
  7 54  1
 10 55  1
 12 56  1
 12 57  1
 38 58  1
 27 59  1
 28 60  1
 46 61  1
 25 62  1
 14 63  1
 35 64  1
 36 65  1
  5 66  1
  6 67  1
 40 68  1
 15 69  1
 29 70  1
 30 71  1
 30 72  1
 22 73  1
 17 74  1
 18 75  1
 26 76  1
 19 77  1
 20 78  1
 32 79  1
  9 80  1
 23 81  1
 23 82  1
 33 83  1
 34 84  1
M  END
$$$$
