B:D16415
  --CCDC--012419    3D                              

 52 54  0  0  0  0  0  0  0  0999 V2000
    7.9153   -9.5220  -16.2405 N      0
    6.9723   -8.6510  -16.7195 C      0
    7.3464   -7.5240  -17.5695 C      0
    5.6562   -8.8239  -16.4015 N      0
    5.2401   -9.8549  -15.6185 C      0
    3.9011   -9.9569  -15.3175 O      0
    6.1681  -10.7949  -15.1095 C      0
    5.7830  -11.9109  -14.3114 C      0
    6.7760  -12.8349  -13.8324 C      0
    8.1511  -12.6080  -14.1624 C      0
    8.5392  -11.4980  -14.9624 C      0
    7.5582  -10.5810  -15.4525 C      0
    6.4449  -14.0509  -13.0014 C      0
    5.0089  -14.3109  -12.6734 N      0
    2.8580  -15.4291  -15.7035 C      0
    4.4420  -14.9981  -15.2825 S      0
    4.0869  -14.7210  -13.6154 C      0
    2.7458  -14.9600  -13.3764 C      0
    2.0169  -15.3830  -14.6184 C      0
    2.4401  -15.7842  -17.0405 C      0
    3.2772  -15.7912  -17.9575 O      0
    1.1580  -16.0892  -17.2355 N      0
    0.5591  -16.4662  -18.5296 C      0
    0.3831  -17.9613  -18.7516 C      0
    0.9122  -18.6524  -19.9706 C      0
    1.2762  -20.0814  -19.5886 C      0
    2.2781  -20.2954  -18.8926 O      0
    0.5691  -21.0094  -19.9816 O      0
   -0.8159  -15.8232  -18.5766 C      0
   -1.4160  -15.6052  -17.5085 O      0
   -1.2959  -15.5313  -19.6706 O      0
    4.6128  -14.1039  -11.2773 C      0
    4.7339  -12.0648  -14.0635 H      0
    8.8927   -9.3791  -16.4738 H      0
    4.8010  -13.0687  -10.9963 H      0
    3.5521  -14.3235  -11.1645 H      0
    5.1909  -14.7655  -10.6340 H      0
    8.9112  -13.2959  -13.7951 H      0
    9.5903  -11.3457  -15.2032 H      0
    0.9553  -15.6232  -14.6548 H      0
    6.5810   -6.8435  -17.9396 H      0
    8.3908   -7.3640  -17.8333 H      0
    6.9794  -13.9529  -12.0577 H      0
    6.8162  -14.9215  -13.5401 H      0
    4.9706   -8.1662  -16.7586 H      0
    0.5436  -16.0597  -16.4282 H      0
    1.1687  -16.0580  -19.3343 H      0
   -0.6899  -18.1468  -18.7381 H      0
    0.8472  -18.4526  -17.8976 H      0
    1.7966  -18.1316  -20.3347 H      0
    0.1504  -18.6616  -20.7487 H      0
    2.2738  -14.8536  -12.4008 H      0
  1  2  1
  1 12  1
  2  3  2
  2  4  1
  4  5  1
  5  6  2
  5  7  1
  7  8  4
  7 12  4
  8  9  4
  9 10  4
  9 13  1
 10 11  4
 11 12  4
 13 14  1
 14 17  1
 14 32  1
 15 16  1
 15 19  2
 15 20  1
 16 17  1
 17 18  2
 18 19  1
 20 21  2
 20 22  1
 22 23  1
 23 24  1
 23 29  1
 24 25  1
 25 26  1
 26 27  4
 26 28  4
 29 30  4
 29 31  4
  8 33  1
  1 34  1
 32 35  1
 32 36  1
 32 37  1
 10 38  1
 11 39  1
 19 40  1
  3 41  1
  3 42  1
 13 43  1
 13 44  1
  4 45  1
 22 46  1
 23 47  1
 24 48  1
 24 49  1
 25 50  1
 25 51  1
 18 52  1
M  END
$$$$
