@<TRIPOS>MOLECULE
H:D16415
     5     4     1     0     0
SMALL
NO_CHARGES
****
Generated from the CSD

@<TRIPOS>ATOM
     1 CP1      4.6120 -14.1030 -11.2770   C.3       1 D16415   0.0000
     2 H1       5.7010 -14.1030 -11.2770   H         1 D16415   0.0000
     3 H2       4.2490 -13.2138 -11.7904   H         1 D16415   0.0000
     4 H3       4.2490 -14.9922 -11.7904   H         1 D16415   0.0000
     5 H4       4.2490 -14.1030 -10.2503   H         1 D16415   0.0000
@<TRIPOS>BOND
     1     1     2    1
     2     1     3    1
     3     1     4    1
     4     1     5    1
@<TRIPOS>SUBSTRUCTURE
     1 D16415      1 GROUP             0 H     D16     0  
