D:1143
  --CCDC--012419    3D                              

 64 65  0  0  0  0  0  0  0  0999 V2000
   44.8056    8.0477   19.8037 O      0
   46.4126    9.4706   19.0567 O      0
   45.5293    9.7406   22.6175 O      0
   44.7252   13.6834   24.0084 O      0
   51.1632   13.2054   23.5174 O      0
   50.4160   11.6305   25.0603 O      0
   45.3906    9.2656   19.6957 C      0
   44.6545   10.3466   20.4556 C      0
   45.4144   10.8345   21.6905 C      0
   44.6814   11.9985   22.3645 C      0
   45.5823   12.8365   23.2804 C      0
   46.5793   13.6814   22.4825 C      0
   47.7782   14.1804   23.3164 C      0
   48.8773   14.9554   22.5175 C      0
   48.3444   16.1513   21.6215 C      0
   49.5144   16.8443   20.8956 C      0
   50.8004   16.8233   21.3475 C      0
   51.1663   16.1843   22.4915 C      0
   52.4742   16.2053   22.8624 C      0
   53.0261   15.5163   24.1214 C      0
   51.9440   14.9354   25.0833 C      0
   50.7301   14.3424   24.3113 C      0
   50.1082   15.4253   23.3764 C      0
   47.6133   17.2523   22.4145 C      0
   50.9551   11.9225   23.9904 C      0
   51.4962   10.8735   23.0024 C      0
   50.6573   10.7785   21.7005 C      0
   49.2403   10.1846   21.8225 C      0
   51.7631    9.4876   23.6514 C      0
   46.0237    8.9938   22.1885 H      0
   44.0894   13.1348   24.5382 H      0
   43.6913    9.9513   20.7749 H      0
   44.4966   11.1929   19.7888 H      0
   46.4103   11.1605   21.3941 H      0
   43.8645   11.5936   22.9601 H      0
   44.2779   12.6479   21.5889 H      0
   46.1203   12.1822   23.9648 H      0
   46.0537   14.5479   22.0838 H      0
   46.9603   13.0778   21.6600 H      0
   48.2482   13.3143   23.7801 H      0
   47.3956   14.8437   24.0907 H      0
   49.2819   14.2301   21.8130 H      0
   47.6614   15.7489   20.8749 H      0
   49.3022   17.3798   19.9714 H      0
   51.5658   17.3389   20.7695 H      0
   53.1756   16.7445   22.2274 H      0
   53.6139   16.2464   24.6758 H      0
   53.6701   14.6977   23.8036 H      0
   51.5898   15.7325   25.7353 H      0
   52.3957   14.1480   25.6850 H      0
   49.9779   14.0131   25.0267 H      0
   49.7090   16.1827   24.0495 H      0
   48.2917   17.6804   23.1510 H      0
   47.2807   18.0319   21.7308 H      0
   46.7510   16.8223   22.9219 H      0
   52.4729   11.2425   22.6927 H      0
   51.2128   10.1610   20.9962 H      0
   50.5577   11.7862   21.2997 H      0
   48.6500   10.7917   22.5072 H      0
   48.7648   10.1758   20.8429 H      0
   49.3051    9.1665   22.2037 H      0
   50.8353    9.0959   24.0656 H      0
   52.1423    8.8003   22.8966 H      0
   52.4990    9.5950   24.4470 H      0
  1  7  4
  2  7  4
  3  9  1
  4 11  1
  5 22  1
  5 25  1
  6 25  2
  7  8  1
  8  9  1
  9 10  1
 10 11  1
 11 12  1
 12 13  1
 13 14  1
 14 15  1
 14 23  1
 15 16  1
 15 24  1
 16 17  2
 17 18  1
 18 19  2
 18 23  1
 19 20  1
 20 21  1
 21 22  1
 22 23  1
 25 26  1
 26 27  1
 26 29  1
 27 28  1
  3 30  1
  4 31  1
  8 32  1
  8 33  1
  9 34  1
 10 35  1
 10 36  1
 11 37  1
 12 38  1
 12 39  1
 13 40  1
 13 41  1
 14 42  1
 15 43  1
 16 44  1
 17 45  1
 19 46  1
 20 47  1
 20 48  1
 21 49  1
 21 50  1
 22 51  1
 23 52  1
 24 53  1
 24 54  1
 24 55  1
 26 56  1
 27 57  1
 27 58  1
 28 59  1
 28 60  1
 28 61  1
 29 62  1
 29 63  1
 29 64  1
M  END
$$$$
