@<TRIPOS>MOLECULE
I:1143
     5     4     1     0     0
SMALL
NO_CHARGES
****
Generated from the CSD

@<TRIPOS>ATOM
     1 C22     51.7660   9.4880  23.6530   C.3       1 1143   0.0000
     2 H1      52.8550   9.4880  23.6530   H         1 1143   0.0000
     3 H2      51.4030  10.3772  23.1396   H         1 1143   0.0000
     4 H3      51.4030   8.5988  23.1396   H         1 1143   0.0000
     5 H4      51.4030   9.4880  24.6797   H         1 1143   0.0000
@<TRIPOS>BOND
     1     1     2    1
     2     1     3    1
     3     1     4    1
     4     1     5    1
@<TRIPOS>SUBSTRUCTURE
     1 1143        1 GROUP             0 I     114     0  
