A:2PE2002
  --CCDC--012419    3D                              

 66 65  0  0  0  0  0  0  0  0999 V2000
   31.5896   37.8643   77.3385 O      0
   32.7186   38.6253   77.8195 C      0
   33.2616   39.5423   76.6895 C      0
   34.0766   38.7763   75.7876 O      0
   33.3996   38.6193   74.5336 C      0
   32.9787   37.1343   74.3576 C      0
   33.1587   36.7273   72.9856 O      0
   33.9546   35.5333   72.9456 C      0
   35.2876   35.8633   72.2846 C      0
   35.8266   34.6903   71.6786 O      0
   36.5236   35.0523   70.4847 C      0
   37.9375   35.4513   70.8196 C      0
   37.9085   36.6723   71.5486 O      0
   39.2154   37.2433   71.5706 C      0
   39.1065   38.7763   71.4796 C      0
   38.3505   39.3023   72.5856 O      0
   37.1875   39.9603   72.0846 C      0
   36.6775   40.9673   73.1186 C      0
   35.2836   40.7373   73.3826 O      0
   34.4946   41.1643   72.2546 C      0
   34.2257   42.6823   72.3376 C      0
   33.0757   42.9354   73.1686 O      0
   33.4776   43.6304   74.3636 C      0
   33.2916   45.1464   74.1676 C      0
   34.1276   45.6084   73.0756 O      0
   33.3207   46.2784   72.0686 C      0
   33.6237   45.7224   70.6537 C      0
   32.6428   44.7314   70.3027 O      0
   31.8723   37.3029   76.5698 H      0
   34.6142   45.2697   70.6469 H      0
   33.5914   46.5359   69.9304 H      0
   34.0400   43.0708   71.3373 H      0
   35.0953   43.1797   72.7645 H      0
   31.7393   45.1435   70.3081 H      0
   33.5044   37.9422   78.1384 H      0
   32.4066   39.2390   78.6633 H      0
   34.0666   38.9066   73.7221 H      0
   32.5139   39.2526   74.5169 H      0
   36.4119   39.2224   71.8851 H      0
   37.4367   40.4833   71.1625 H      0
   33.4386   34.7668   72.3694 H      0
   34.1263   35.1720   73.9585 H      0
   36.0149   35.8894   70.0088 H      0
   36.5395   34.2026   69.8037 H      0
   33.8596   40.3399   77.1278 H      0
   32.4253   39.9746   76.1421 H      0
   31.9308   37.0220   74.6320 H      0
   33.5921   36.5071   75.0028 H      0
   38.6096   39.0441   70.5483 H      0
   40.1067   39.2067   71.4943 H      0
   35.9825   36.2344   73.0365 H      0
   35.1350   36.6267   71.5232 H      0
   39.7895   36.8692   70.7242 H      0
   39.7159   36.9693   72.4982 H      0
   36.8099   41.9775   72.7340 H      0
   37.2431   40.8536   74.0423 H      0
   33.5457   40.6301   72.2562 H      0
   35.0337   40.9441   71.3344 H      0
   33.5414   47.3446   72.0870 H      0
   32.2670   46.1218   72.2946 H      0
   34.5253   43.4177   74.5713 H      0
   32.8664   43.2955   75.2004 H      0
   33.5725   45.6661   75.0824 H      0
   32.2481   45.3555   73.9371 H      0
   38.5070   35.5867   69.9013 H      0
   38.4034   34.6748   71.4246 H      0
  1  2  1
  2  3  1
  3  4  1
  4  5  1
  5  6  1
  6  7  1
  7  8  1
  8  9  1
  9 10  1
 10 11  1
 11 12  1
 12 13  1
 13 14  1
 14 15  1
 15 16  1
 16 17  1
 17 18  1
 18 19  1
 19 20  1
 20 21  1
 21 22  1
 22 23  1
 23 24  1
 24 25  1
 25 26  1
 26 27  1
 27 28  1
  1 29  1
 27 30  1
 27 31  1
 21 32  1
 21 33  1
 28 34  1
  2 35  1
  2 36  1
  5 37  1
  5 38  1
 17 39  1
 17 40  1
  8 41  1
  8 42  1
 11 43  1
 11 44  1
  3 45  1
  3 46  1
  6 47  1
  6 48  1
 15 49  1
 15 50  1
  9 51  1
  9 52  1
 14 53  1
 14 54  1
 18 55  1
 18 56  1
 20 57  1
 20 58  1
 26 59  1
 26 60  1
 23 61  1
 23 62  1
 24 63  1
 24 64  1
 12 65  1
 12 66  1
M  END
$$$$
