@<TRIPOS>MOLECULE
R:VIB501
     5     4     1     0     0
SMALL
NO_CHARGES
****
Generated from the CSD

@<TRIPOS>ATOM
     1 C5A     22.3520  39.9850  19.9420   C.3       1 VIB501   0.0000
     2 H1      23.4410  39.9850  19.9420   H         1 VIB501   0.0000
     3 H2      21.9890  40.8742  19.4286   H         1 VIB501   0.0000
     4 H3      21.9890  39.0958  19.4286   H         1 VIB501   0.0000
     5 H4      21.9890  39.9850  20.9687   H         1 VIB501   0.0000
@<TRIPOS>BOND
     1     1     2    1
     2     1     3    1
     3     1     4    1
     4     1     5    1
@<TRIPOS>SUBSTRUCTURE
     1 VIB501      1 GROUP             0 R     VIB     0  
