B:VIB501
  --CCDC--012419    3D                              

 35 36  0  0  0  0  0  0  0  0999 V2000
   19.3375   39.6523   23.0294 C      0
   23.9856   39.0723   21.4975 N      0
   25.6735   40.2273   16.9576 C      0
   28.1234   44.5175   15.9886 O      0
   27.0384   44.1154   16.8016 C      0
   27.3744   42.7464   17.4456 C      0
   24.3084   42.1254   19.7205 C      0
   25.5514   43.3664   19.6035 S      0
   26.1634   42.3604   18.2426 C      0
   25.3935   41.2563   18.0456 C      0
   24.4075   41.1863   18.8725 N      0
   23.4175   40.0973   18.8715 C      0
   22.6735   39.4713   21.2145 C      0
   21.6915   39.3693   22.2075 N      0
   20.3725   39.7683   21.9505 C      0
   20.0324   40.2833   20.6805 N      0
   21.0165   40.3893   19.6755 C      0
   22.3505   39.9863   19.9415 C      0
   24.7029   39.1432   20.7829 H      0
   24.2193   38.7121   22.4172 H      0
   19.6361   40.2559   23.8853 H      0
   18.3789   40.0060   22.6525 H      0
   19.2458   38.6108   23.3341 H      0
   20.7519   40.7809   18.6944 H      0
   26.6612   39.7953   17.1121 H      0
   24.9223   39.4401   17.0005 H      0
   25.6373   40.7109   15.9825 H      0
   23.9849   39.1685   18.9082 H      0
   22.8910   40.1638   17.9206 H      0
   23.5141   42.1607   20.4647 H      0
   28.2433   42.8364   18.0959 H      0
   27.5735   42.0035   16.6746 H      0
   26.1402   44.0225   16.1929 H      0
   26.8726   44.8560   17.5826 H      0
   28.2735   43.8400   15.2783 H      0
  1 15  1
  2 13  1
  3 10  1
  4  5  1
  5  6  1
  6  9  1
  7  8  1
  7 11  2
  8  9  1
  9 10  2
 10 11  1
 11 12  1
 12 18  1
 13 14  4
 13 18  4
 14 15  4
 15 16  4
 16 17  4
 17 18  4
  2 19  1
  2 20  1
  1 21  1
  1 22  1
  1 23  1
 17 24  1
  3 25  1
  3 26  1
  3 27  1
 12 28  1
 12 29  1
  7 30  1
  6 31  1
  6 32  1
  5 33  1
  5 34  1
  4 35  1
M  END
$$$$
