A:TST201
  --CCDC--012419    3D                              

 52 53  0  0  0  0  0  0  0  0999 V2000
   32.9938  -34.9595  -42.9870 S      0
   32.7258  -33.1565  -43.1220 C      0
   32.1538  -32.8245  -41.6250 C      0
   30.6548  -33.2675  -41.7420 N      0
   30.6368  -34.9135  -41.7270 C      0
   31.4557  -35.3875  -43.1270 C      0
   31.2318  -35.6075  -40.3010 C      0
   31.5558  -34.7605  -39.3400 N      0
   31.4758  -36.7295  -40.4040 O      0
   32.3508  -35.1995  -38.2540 C      0
   32.9628  -34.0115  -37.5010 C      0
   31.5348  -36.1215  -37.2190 C      0
   30.1998  -36.3355  -37.4340 O      0
   32.0958  -36.5495  -36.3240 O      0
   32.1478  -32.7515  -37.4770 C      0
   32.9348  -31.5405  -36.8470 C      0
   29.3417  -32.3715  -41.8800 S      0
   29.1908  -31.5755  -40.4200 C      0
   29.6888  -30.1846  -40.2990 C      0
   29.5588  -29.4796  -38.9860 C      0
   28.9588  -30.1066  -37.8660 C      0
   28.4658  -31.4555  -37.9700 C      0
   28.5828  -32.1995  -39.2250 C      0
   28.8258  -29.3786  -36.5430 C      0
   28.2247  -33.2275  -42.0040 O      0
   29.8727  -31.5715  -42.9200 O      0
   30.9208  -33.0665  -36.6230 C      0
   33.9193  -33.7797  -37.9672 H      0
   33.1271  -34.3207  -36.4698 H      0
   28.0009  -31.9272  -37.1055 H      0
   32.2358  -31.7629  -41.3967 H      0
   32.6783  -33.4009  -40.8644 H      0
   31.8347  -32.4984  -38.4888 H      0
   33.1681  -35.7949  -38.6582 H      0
   29.5999  -35.2285  -41.8341 H      0
   29.9337  -28.4618  -38.8888 H      0
   31.2357  -33.7981  -39.3803 H      0
   33.8339  -31.3489  -37.4307 H      0
   32.3023  -30.6541  -36.8529 H      0
   33.2121  -31.7817  -35.8219 H      0
   28.2180  -33.2242  -39.2794 H      0
   28.2263  -28.4801  -36.6817 H      0
   28.3410  -30.0300  -35.8173 H      0
   29.8146  -29.1027  -36.1794 H      0
   31.2391  -33.3505  -35.6210 H      0
   30.2829  -32.1858  -36.5652 H      0
   30.3658  -33.8878  -37.0740 H      0
   31.3846  -36.4676  -43.2461 H      0
   31.0155  -34.8969  -43.9938 H      0
   30.1423  -29.6835  -41.1529 H      0
   31.9958  -32.9156  -43.8934 H      0
   33.6553  -32.6262  -43.3235 H      0
  1  2  1
  1  6  1
  2  3  1
  3  4  1
  4  5  1
  4 17  1
  5  6  1
  5  7  1
  7  8  1
  7  9  2
  8 10  1
 10 11  1
 10 12  1
 11 15  1
 12 13  4
 12 14  4
 15 16  1
 15 27  1
 17 18  1
 17 25  2
 17 26  2
 18 19  4
 18 23  4
 19 20  4
 20 21  4
 21 22  4
 21 24  1
 22 23  4
 11 28  1
 11 29  1
 22 30  1
  3 31  1
  3 32  1
 15 33  1
 10 34  1
  5 35  1
 20 36  1
  8 37  1
 16 38  1
 16 39  1
 16 40  1
 23 41  1
 24 42  1
 24 43  1
 24 44  1
 27 45  1
 27 46  1
 27 47  1
  6 48  1
  6 49  1
 19 50  1
  2 51  1
  2 52  1
M  END
$$$$
