@<TRIPOS>MOLECULE
B:TST201
     5     4     1     0     0
SMALL
NO_CHARGES
****
Generated from the CSD

@<TRIPOS>ATOM
     1 C18     30.9210 -33.0670 -36.6230   C.3       1 TST201   0.0000
     2 H1      32.0100 -33.0670 -36.6230   H         1 TST201   0.0000
     3 H2      30.5580 -32.1778 -37.1364   H         1 TST201   0.0000
     4 H3      30.5580 -33.9562 -37.1364   H         1 TST201   0.0000
     5 H4      30.5580 -33.0670 -35.5963   H         1 TST201   0.0000
@<TRIPOS>BOND
     1     1     2    1
     2     1     3    1
     3     1     4    1
     4     1     5    1
@<TRIPOS>SUBSTRUCTURE
     1 TST201      1 GROUP             0 B     TST     0  
