A:IFG601
  --CCDC--012419    3D                              

 31 31  0  0  0  0  0  0  0  0999 V2000
   -4.9166   66.0715   10.1951 N      3
   -5.3186   66.5955    8.8641 C      0
   -4.1286   66.9615    7.8871 C      0
   -2.9205   67.6125    8.5931 C      0
   -2.5096   66.7235    9.7691 C      0
   -1.2895   67.1955   10.5531 C      0
   -5.8327   64.3146    8.0961 C      0
   -6.6498   63.2506    7.4091 C      0
   -3.6436   66.5175   10.7821 C      0
   -6.2147   65.6225    8.2001 N      0
   -4.7758   63.9516    8.5931 O      0
   -4.6075   67.8305    6.8691 O      0
   -3.3154   68.8905    9.0901 O      0
   -0.6796   66.1205   11.2591 O      0
   -4.9652   68.6594    7.2827 H      0
   -2.0911   67.7204    7.8957 H      0
   -7.1076   65.9250    7.8241 H      0
   -3.3219   65.7686   11.5042 H      0
   -3.8182   67.4631   11.2932 H      0
   -4.8693   65.0608   10.1150 H      0
   -5.6506   66.3251   10.8487 H      0
   -4.0626   68.7785    9.7344 H      0
   -6.7970   63.5234    6.3651 H      0
   -6.1255   62.2977    7.4648 H      0
   -7.6173   63.1618    7.9009 H      0
   -0.3898   65.4232   10.6143 H      0
   -1.5996   67.9576   11.2665 H      0
   -0.5653   67.6205    9.8598 H      0
   -3.7869   66.0426    7.4128 H      0
   -2.2662   65.7444    9.3591 H      0
   -5.8932   67.5051    9.0323 H      0
  1  2  1
  1  9  1
  2  3  1
  2 10  1
  3  4  1
  3 12  1
  4  5  1
  4 13  1
  5  6  1
  5  9  1
  6 14  1
  7  8  1
  7 10  1
  7 11  2
 12 15  1
  4 16  1
 10 17  1
  9 18  1
  9 19  1
  1 20  1
  1 21  1
 13 22  1
  8 23  1
  8 24  1
  8 25  1
 14 26  1
  6 27  1
  6 28  1
  3 29  1
  5 30  1
  2 31  1
M  CHG  1   1   1
M  END
$$$$
