@<TRIPOS>MOLECULE
J:142702
     5     4     1     0     0
SMALL
NO_CHARGES
****
Generated from the CSD

@<TRIPOS>ATOM
     1 C       54.5660  11.6910  83.5180   C.3       1 142702   0.0000
     2 H1      55.6550  11.6910  83.5180   H         1 142702   0.0000
     3 H2      54.2030  12.5802  83.0046   H         1 142702   0.0000
     4 H3      54.2030  10.8018  83.0046   H         1 142702   0.0000
     5 H4      54.2030  11.6910  84.5447   H         1 142702   0.0000
@<TRIPOS>BOND
     1     1     2    1
     2     1     3    1
     3     1     4    1
     4     1     5    1
@<TRIPOS>SUBSTRUCTURE
     1 142702      1 GROUP             0 J     142     0  
