J:142702
  --CCDC--110118    3D                              

 29 29  0  0  0  0  0  0  0  0999 V2000
   53.7940   13.7350   84.1590 N      0
   52.7850   14.7450   84.2280 N      0
   53.3600   12.5640   83.8310 C      0
   52.4510   12.5650   82.5680 C      0
   52.5730   11.9810   85.0190 C      0
   51.0060   13.0500   82.7190 C      0
   50.6360   14.3160   82.2490 C      0
   49.3390   14.8080   82.3940 C      0
   50.0200   12.2710   83.3500 C      0
   48.6900   12.7570   83.5100 C      0
   48.3670   14.0410   83.0190 C      0
   47.0990   14.5870   83.1320 O      0
   48.9970   16.0640   81.9240 O      0
   54.5660   11.6910   83.5180 C      0
   54.5560   10.4660   83.8140 O      0
   55.5890   12.3290   83.1830 O      0
   52.0912   14.4833   84.9211 H      0
   53.2087   15.6292   84.4905 H      0
   54.2353   13.6654   85.0704 H      0
   52.4115   11.5418   82.1973 H      0
   52.9298   13.2018   81.8256 H      0
   51.7343   12.6345   85.2546 H      0
   52.2001   10.9920   84.7570 H      0
   53.2279   11.9042   85.8856 H      0
   51.3835   14.9352   81.7553 H      0
   50.2769   11.2804   83.7224 H      0
   47.9343   12.1475   84.0034 H      0
   46.7399   14.7802   82.2266 H      0
   49.1510   16.1039   80.9438 H      0
  1  2  1
  1  3  1
  3  4  1
  3  5  1
  3 14  1
  4  6  1
  6  7  4
  6  9  4
  7  8  4
  8 11  4
  8 13  1
  9 10  4
 10 11  4
 11 12  1
 14 15  4
 14 16  4
  2 17  1
  2 18  1
  1 19  1
  4 20  1
  4 21  1
  5 22  1
  5 23  1
  5 24  1
  7 25  1
  9 26  1
 10 27  1
 12 28  1
 13 29  1
M  END
$$$$
