A:IAV401
  --CCDC--012419    3D                              

 37 38  0  0  0  0  0  0  0  0999 V2000
   48.3331   25.6201   11.3229 O      0
   49.5942   26.0511   11.2839 C      0
   49.8292   27.4031   11.3149 N      0
   48.5481   28.0211   11.7009 C      0
   48.4522   29.0931   10.6499 C      0
   47.6171   30.1481   10.8489 O      0
   49.1294   28.9441    9.4490 O      0
   48.5599   28.7771   12.9979 C      0
   49.7280   29.7801   13.0409 C      0
   48.7548   27.8911   14.2019 C      0
   50.6692   24.9911   11.2859 C      0
   51.5271   24.8511   12.5159 C      0
   52.8512   25.1751   12.5119 C      0
   53.2831   24.8911   13.7769 N      0
   52.2589   24.5031   14.5299 C      0
   52.2238   24.1831   15.8809 C      0
   51.1040   24.5211   13.7419 C      0
   49.8759   24.1391   14.2219 C      0
   49.8347   23.7741   15.5799 C      0
   50.9747   23.8181   16.4339 C      0
   50.8855   23.5754   17.4918 H      0
   47.6212   29.3191   13.1028 H      0
   48.8859   23.4419   15.9987 H      0
   48.9887   24.1198   13.5907 H      0
   49.7066   27.3686   14.1179 H      0
   48.7535   28.5001   15.1048 H      0
   47.9451   27.1647   14.2529 H      0
   53.1249   24.2122   16.4917 H      0
   54.2442   24.9655   14.0946 H      0
   53.4358   25.5725   11.6835 H      0
   49.6259   30.4916   12.2228 H      0
   49.7134   30.3139   13.9901 H      0
   50.6706   29.2441   12.9404 H      0
   47.7196   27.3166   11.6447 H      0
   51.3346   25.2042   10.4505 H      0
   50.1783   24.0327   11.1237 H      0
   50.7033   27.8783   11.1139 H      0
  1  2  2
  2  3  1
  2 11  1
  3  4  1
  4  5  1
  4  8  1
  5  6  4
  5  7  4
  8  9  1
  8 10  1
 11 12  1
 12 13  2
 12 17  1
 13 14  1
 14 15  1
 15 16  4
 15 17  4
 16 20  4
 17 18  4
 18 19  4
 19 20  4
 20 21  1
  8 22  1
 19 23  1
 18 24  1
 10 25  1
 10 26  1
 10 27  1
 16 28  1
 14 29  1
 13 30  1
  9 31  1
  9 32  1
  9 33  1
  4 34  1
 11 35  1
 11 36  1
  3 37  1
M  END
$$$$
