@<TRIPOS>MOLECULE
C:IAV401
     5     4     1     0     0
SMALL
NO_CHARGES
****
Generated from the CSD

@<TRIPOS>ATOM
     1 C5     132.6900  23.8180 -16.4340   C.3       1 IAV401   0.0000
     2 H1     133.7790  23.8180 -16.4340   H         1 IAV401   0.0000
     3 H2     132.3270  24.7072 -16.9474   H         1 IAV401   0.0000
     4 H3     132.3270  22.9288 -16.9474   H         1 IAV401   0.0000
     5 H4     132.3270  23.8180 -15.4073   H         1 IAV401   0.0000
@<TRIPOS>BOND
     1     1     2    1
     2     1     3    1
     3     1     4    1
     4     1     5    1
@<TRIPOS>SUBSTRUCTURE
     1 IAV401      1 GROUP             0 C     IAV     0  
