A:PPR1000
  --CCDC--012419    3D                              

 12 11  0  0  0  0  0  0  0  0999 V2000
   12.2147    8.3998    4.2268 C      0
   12.8387    8.8968    3.2099 O      0
   10.9976    8.4698    4.3358 O      0
   13.0997    7.7158    5.2688 C      0
   14.4398    7.4998    5.2768 C      0
   12.4337    7.2478    6.3017 O      0
   14.5988    5.6079    4.7978 P      0
   15.9868    5.4369    4.1138 O      5
   13.4777    5.3689    3.9048 O      5
   14.5948    4.8219    6.0457 O      5
   15.2362    8.2092    5.4969 H      0
   11.7699    6.5776    5.9915 H      0
  1  2  4
  1  3  4
  1  4  1
  4  5  2
  4  6  1
  5  7  1
  7  8  4
  7  9  4
  7 10  4
  5 11  1
  6 12  1
M  CHG  3   8  -1   9  -1  10  -1
M  END
$$$$
