@<TRIPOS>MOLECULE
B:LS2299
     5     4     1     0     0
SMALL
NO_CHARGES
****
Generated from the CSD

@<TRIPOS>ATOM
     1 C39     27.4910   5.3730   7.5610   C.3       1 LS2299   0.0000
     2 H1      28.5800   5.3730   7.5610   H         1 LS2299   0.0000
     3 H2      27.1280   6.2622   7.0476   H         1 LS2299   0.0000
     4 H3      27.1280   4.4838   7.0476   H         1 LS2299   0.0000
     5 H4      27.1280   5.3730   8.5877   H         1 LS2299   0.0000
@<TRIPOS>BOND
     1     1     2    1
     2     1     3    1
     3     1     4    1
     4     1     5    1
@<TRIPOS>SUBSTRUCTURE
     1 LS2299      1 GROUP             0 B     LS2     0  
