@<TRIPOS>MOLECULE
D:C24999
     5     4     1     0     0
SMALL
NO_CHARGES
****
Generated from the CSD

@<TRIPOS>ATOM
     1 C1      13.3350 -12.6420  20.7700   C.3       1 C24999   0.0000
     2 H1      14.4240 -12.6420  20.7700   H         1 C24999   0.0000
     3 H2      12.9720 -11.7528  20.2566   H         1 C24999   0.0000
     4 H3      12.9720 -13.5312  20.2566   H         1 C24999   0.0000
     5 H4      12.9720 -12.6420  21.7967   H         1 C24999   0.0000
@<TRIPOS>BOND
     1     1     2    1
     2     1     3    1
     3     1     4    1
     4     1     5    1
@<TRIPOS>SUBSTRUCTURE
     1 C24999      1 GROUP             0 D     C24     0  
