A:RS7841
  --CCDC--012419    3D                              

 38 38  0  0  0  0  0  0  0  0999 V2000
  -28.2592  148.8399   55.7705 C      0
  -27.0570  149.1549   55.6145 O      0
  -28.6293  147.6530   55.6845 O      0
  -29.2761  149.8448   56.0735 C      0
  -29.0110  151.1997   56.2345 C      0
  -29.9970  152.0787   56.6766 C      0
  -31.3361  151.6907   56.5866 C      0
  -32.3491  152.4286   57.2186 C      0
  -32.0349  153.5746   57.9586 C      0
  -30.7078  153.9915   58.0696 C      0
  -29.6908  153.2626   57.4436 C      0
  -28.3617  153.6026   57.7786 C      0
  -27.0086  153.8405   58.0916 C      0
  -25.5395  153.9635   58.4237 C      0
  -25.0256  152.6376   58.9707 C      0
  -24.9437  151.5557   57.9046 C      0
  -23.8496  151.8357   56.8906 C      0
  -23.8927  150.8178   55.7635 C      0
  -22.7556  151.0577   54.8034 C      0
  -25.6986  152.3010   59.7579 H      0
  -24.0310  152.7939   59.3858 H      0
  -25.8990  151.5019   57.3847 H      0
  -24.7390  150.6014   58.3877 H      0
  -24.9395  154.8628   58.2920 H      0
  -30.3072  149.5109   56.1799 H      0
  -32.8543  151.7456   57.8999 H      0
  -33.0413  152.7409   56.4381 H      0
  -22.8808  151.7815   57.3850 H      0
  -23.9910  152.8333   56.4775 H      0
  -32.8262  154.1407   58.4478 H      0
  -21.8082  150.9648   55.3323 H      0
  -22.7969  150.3229   54.0008 H      0
  -22.8401  152.0590   54.3836 H      0
  -28.0154  151.5805   56.0113 H      0
  -24.8384  150.9096   55.2315 H      0
  -23.8064  149.8154   56.1803 H      0
  -30.4637  154.8843   58.6435 H      0
  -31.5984  150.8007   56.0164 H      0
  1  2  4
  1  3  4
  1  4  1
  4  5  2
  5  6  1
  6  7  2
  6 11  1
  7  8  1
  8  9  1
  9 10  2
 10 11  1
 11 12  2
 12 13  2
 13 14  2
 14 15  1
 15 16  1
 16 17  1
 17 18  1
 18 19  1
 15 20  1
 15 21  1
 16 22  1
 16 23  1
 14 24  1
  4 25  1
  8 26  1
  8 27  1
 17 28  1
 17 29  1
  9 30  1
 19 31  1
 19 32  1
 19 33  1
  5 34  1
 18 35  1
 18 36  1
 10 37  1
  7 38  1
M  END
$$$$
