B:CMB301
  --CCDC--112618    3D                              

 55 58  0  0  0  0  0  0  0  0999 V2000
    3.9020    9.7101   25.8182 C      0
    5.0190    8.9441   25.4532 C      0
    5.3240    8.7111   24.0813 C      0
    4.5650    9.2431   23.0403 C      0
    3.4020   10.0361   23.4183 C      0
    3.0890   10.2411   24.7892 C      0
    6.3100    7.8911   23.5493 N      0
    6.1790    7.9631   22.1703 C      0
    5.1020    8.8591   21.7933 C      0
    2.5560   10.6661   22.3873 C      0
    6.9710    7.2331   21.2463 C      0
    6.4300    6.9101   20.0464 N      0
    7.2180    6.1500   19.0754 C      0
    7.5250    4.6930   19.4144 C      0
    7.1730    7.0071   24.3443 C      0
    8.4660    7.6431   24.7872 C      0
    9.1520    8.6531   24.0793 C      0
   10.4430    9.0431   24.4842 C      0
   11.0080    8.4271   25.6182 C      0
   10.2730    7.4691   26.3552 C      0
    9.0090    7.0821   25.9332 C      0
    8.4830    3.9960   18.6614 C      0
    8.7180    2.6240   18.8484 C      0
    7.9850    1.9400   19.8324 C      0
    7.0210    2.6140   20.6074 C      0
    6.8080    3.9930   20.3964 C      0
   10.7420    6.8551   27.5852 C      0
   12.0200    6.8871   27.9691 N      0
    9.8430    1.7730   17.8015 Cl     0
    6.0320    1.7510   21.7843 Cl     0
    8.1180    6.8821   21.5353 O      0
    9.8220    6.2060   28.2881 N      3
    3.6668    9.8913   26.8660 H      0
    5.4818    7.1943   19.8221 H      0
   10.9928    9.8044   23.9328 H      0
    8.6831    9.1306   23.2202 H      0
    9.0603    4.5343   17.9111 H      0
   12.0178    8.6902   25.9297 H      0
   12.3002    6.4432   28.8379 H      0
   12.7117    7.3552   27.3923 H      0
    2.2047   10.8191   25.0534 H      0
   10.0762    5.7515   29.1594 H      0
    8.8643    6.1643   27.9545 H      0
    6.0760    4.5219   21.0050 H      0
    4.7864    9.1604   20.7956 H      0
    8.1694    6.6650   18.9505 H      0
    6.6736    6.1594   18.1323 H      0
    8.1637    0.8786   19.9976 H      0
    5.6597    8.5231   26.2267 H      0
    2.1424    9.8966   21.7372 H      0
    1.7442   11.2108   22.8670 H      0
    3.1568   11.3560   21.7966 H      0
    8.4462    6.3413   26.4993 H      0
    7.4115    6.1310   23.7429 H      0
    6.6220    6.6991   25.2316 H      0
  1  2  4
  1  6  4
  2  3  4
  3  4  4
  3  7  1
  4  5  4
  4  9  1
  5  6  4
  5 10  1
  7  8  1
  7 15  1
  8  9  2
  8 11  1
 11 12  1
 11 31  2
 12 13  1
 13 14  1
 14 22  4
 14 26  4
 15 16  1
 16 17  4
 16 21  4
 17 18  4
 18 19  4
 19 20  4
 20 21  4
 20 27  1
 22 23  4
 23 24  4
 23 29  1
 24 25  4
 25 26  4
 25 30  1
 27 28  1
 27 32  2
  1 33  1
 12 34  1
 18 35  1
 17 36  1
 22 37  1
 19 38  1
 28 39  1
 28 40  1
  6 41  1
 32 42  1
 32 43  1
 26 44  1
  9 45  1
 13 46  1
 13 47  1
 24 48  1
  2 49  1
 10 50  1
 10 51  1
 10 52  1
 21 53  1
 15 54  1
 15 55  1
M  CHG  1  32   1
M  END
$$$$
