A:HCP434
  --CCDC--012419    3D                              

 41 42  0  0  0  0  0  0  0  0999 V2000
   16.1084   52.4775   15.5962 C      0
   16.4094   53.0085   14.3862 C      0
   17.6205   52.6975   13.6982 N      0
   18.4525   51.8625   14.2102 C      0
   17.0525   51.5645   16.2132 C      0
   16.8025   51.0646   17.5962 C      0
   15.7474   51.3545   18.2992 N      0
   15.7864   51.1336   19.7403 C      0
   16.6954   49.9326   20.1903 C      0
   16.6854   50.1436   21.7083 C      0
   16.5904   51.7495   21.8873 C      0
   16.5534   52.3015   20.4533 C      0
   14.0124   51.1096   20.1733 P      0
   13.5674   51.0136   21.6813 O      5
   13.3674   52.4105   19.5683 O      5
   13.3414   49.8726   19.4793 O      5
   14.8834   52.8545   16.2402 O      0
   15.4414   53.9974   13.7782 C      0
   18.1745   51.2685   15.5342 C      0
   19.2015   50.3496   16.0602 C      0
   19.0775   49.0557   15.6092 O      0
   19.8855   48.2017   16.5642 P      0
   20.1785   48.8737   17.9122 O      5
   19.4085   46.7558   16.6612 O      5
   21.2546   48.1997   15.9012 O      5
   14.9145   51.7268   17.8544 H      0
   17.5998   49.7586   22.1575 H      0
   15.8246   49.6533   22.1604 H      0
   19.3592   51.5937   13.6702 H      0
   17.7005   50.0103   19.7783 H      0
   16.2627   48.9725   19.9131 H      0
   14.1153   52.6047   15.6626 H      0
   15.3334   54.8543   14.4415 H      0
   15.8210   54.3307   12.8134 H      0
   14.4724   53.5197   13.6416 H      0
   19.9873   50.6668   16.7441 H      0
   17.5517   50.4149   18.0462 H      0
   17.4602   52.1283   22.4221 H      0
   15.6850   52.0227   22.4272 H      0
   16.0063   53.2412   20.3946 H      0
   17.5539   52.4379   20.0454 H      0
  1  2  2
  1  5  1
  1 17  1
  2  3  1
  2 18  1
  3  4  2
  4 19  1
  5  6  2
  5 19  1
  6  7  1
  7  8  1
  8  9  1
  8 12  1
  8 13  1
  9 10  1
 10 11  1
 11 12  1
 13 14  4
 13 15  4
 13 16  4
 19 20  2
 20 21  1
 21 22  1
 22 23  4
 22 24  4
 22 25  4
  7 26  1
 10 27  1
 10 28  1
  4 29  1
  9 30  1
  9 31  1
 17 32  1
 18 33  1
 18 34  1
 18 35  1
 20 36  1
  6 37  1
 11 38  1
 11 39  1
 12 40  1
 12 41  1
M  CHG  6  14  -1  15  -1  16  -1  23  -1  24  -1  25  -1
M  END
$$$$
