A:AQ4999
  --CCDC--012419    3D                              

 52 54  0  0  0  0  0  0  0  0999 V2000
   29.5524   -1.9890   53.4968 C      0
   28.8414   -1.0220   53.4328 C      0
   27.9894    0.0940   53.3668 C      0
   26.6064   -0.1190   53.3238 C      0
   25.7254    0.9720   53.2588 C      0
   24.2894    0.7120   53.2158 N      0
   23.4103   -0.2170   53.9088 C      0
   22.0373   -0.3090   53.5728 C      0
   21.5013    0.4760   52.5468 C      0
   20.1433    0.3760   52.2188 C      0
   19.5893    1.2200   51.1208 O      0
   20.5503    1.3620   50.0417 C      0
   20.2353    2.6450   49.2627 C      0
   18.9903    2.4850   48.5437 O      0
   17.7123    2.6180   49.3997 C      0
   19.3013   -0.5350   52.9238 C      0
   17.8283   -0.6790   52.5978 O      0
   17.2273    0.6010   52.2208 C      0
   15.7032    0.4940   52.0668 C      0
   15.1082    0.1670   53.3358 O      0
   13.8432   -0.6950   53.2218 C      0
   19.8453   -1.3180   53.9428 C      0
   21.1993   -1.2220   54.2648 C      0
   21.7473   -2.0390   55.3198 N      0
   23.1173   -1.9340   55.6428 C      0
   23.9434   -1.0230   54.9408 N      0
   26.2344    2.2920   53.2368 C      0
   27.6254    2.5090   53.2798 C      0
   28.5084    1.4100   53.3448 C      0
   28.0193    3.5242   53.2629 H      0
   29.5845    1.5742   53.3779 H      0
   17.6814    3.6069   49.8548 H      0
   16.8361    2.4819   48.7675 H      0
   17.7178    1.8591   50.1807 H      0
   21.0387    2.8457   48.5555 H      0
   20.1473    3.4785   49.9581 H      0
   25.5517    3.1390   53.1867 H      0
   20.4815    0.5034   49.3754 H      0
   21.5566    1.4221   50.4538 H      0
   23.7972    1.3096   52.5594 H      0
   19.2076   -2.0097   54.4912 H      0
   17.6550    0.9255   51.2733 H      0
   17.4526    1.3365   52.9916 H      0
   30.1966   -2.8652   53.5548 H      0
   14.0872   -1.6340   52.7271 H      0
   13.4527   -0.9000   54.2175 H      0
   13.0923   -0.1626   52.6399 H      0
   26.2128   -1.1342   53.3408 H      0
   15.4664   -0.2858   51.3445 H      0
   15.3073    1.4459   51.7161 H      0
   23.5393   -2.5540   56.4324 H      0
   22.1419    1.1672   52.0012 H      0
  1  2  3
  2  3  1
  3  4  4
  3 29  4
  4  5  4
  5  6  1
  5 27  4
  6  7  1
  7  8  4
  7 26  4
  8  9  4
  8 23  4
  9 10  4
 10 11  1
 10 16  4
 11 12  1
 12 13  1
 13 14  1
 14 15  1
 16 17  1
 16 22  4
 17 18  1
 18 19  1
 19 20  1
 20 21  1
 22 23  4
 23 24  4
 24 25  4
 25 26  4
 27 28  4
 28 29  4
 28 30  1
 29 31  1
 15 32  1
 15 33  1
 15 34  1
 13 35  1
 13 36  1
 27 37  1
 12 38  1
 12 39  1
  6 40  1
 22 41  1
 18 42  1
 18 43  1
  1 44  1
 21 45  1
 21 46  1
 21 47  1
  4 48  1
 19 49  1
 19 50  1
 25 51  1
  9 52  1
M  END
$$$$
