A:BDI900
  --CCDC--012419    3D                              

 27 28  0  0  0  0  0  0  0  0999 V2000
   15.4349   16.8532   20.4094 N      0
   16.5899   17.0762   19.8064 C      0
   16.7439   17.0262   18.2844 C      0
   15.6649   17.7693   17.4324 C      0
   16.3420   18.3733   16.1583 C      0
   15.3430   19.1173   15.2383 C      0
   17.4899   17.3223   20.6054 N      0
   17.0379   17.3013   21.9585 C      0
   17.7019   17.5273   23.2775 C      0
   16.8748   17.4103   24.4015 N      0
   15.4118   17.0792   24.3155 N      0
   14.7398   16.8562   23.0985 C      0
   13.5078   16.5762   23.0105 O      0
   15.6458   16.9832   21.8395 C      0
   18.8999   17.7963   23.3315 O      0
   14.8811   17.0131   25.1782 H      0
   17.2837   17.5562   25.3190 H      0
   16.7308   15.9784   17.9881 H      0
   17.7117   17.4609   18.0386 H      0
   14.5560   16.6305   19.9531 H      0
   16.7994   17.5637   15.5914 H      0
   17.1121   19.0754   16.4743 H      0
   14.8835   19.9367   15.7890 H      0
   15.8722   19.5132   14.3729 H      0
   14.5707   18.4251   14.9061 H      0
   15.2218   18.5694   18.0233 H      0
   14.8890   17.0660   17.1337 H      0
  1  2  1
  1 14  1
  2  3  1
  2  7  2
  3  4  1
  4  5  1
  5  6  1
  7  8  1
  8  9  1
  8 14  2
  9 10  1
  9 15  2
 10 11  1
 11 12  1
 12 13  2
 12 14  1
 11 16  1
 10 17  1
  3 18  1
  3 19  1
  1 20  1
  5 21  1
  5 22  1
  6 23  1
  6 24  1
  6 25  1
  4 26  1
  4 27  1
M  END
$$$$
