@<TRIPOS>MOLECULE
L:ZMR479
     4     3     1     0     0
SMALL
NO_CHARGES
****
Generated from the CSD

@<TRIPOS>ATOM
     1 NH2    -23.7020 -13.3400  62.4500   N.3       1 ZMR479   0.0000
     2 H1     -22.6870 -13.3400  62.4500   H         1 ZMR479   0.0000
     3 H2     -24.0403 -12.5113  61.9715   H         1 ZMR479   0.0000
     4 H3     -24.0403 -14.1687  61.9715   H         1 ZMR479   0.0000
@<TRIPOS>BOND
     1     1     2    1
     2     1     3    1
     3     1     4    1
@<TRIPOS>SUBSTRUCTURE
     1 ZMR479      1 GROUP             0 L     ZMR     0  
