A:FR91001
  --CCDC--012419    3D                              

 59 62  0  0  0  0  0  0  0  0999 V2000
   51.9856   54.5157   20.7530 C      0
   52.0546   55.5768   21.7711 N      0
   51.7946   54.9087   22.8861 C      0
   51.6396   53.6177   22.7641 N      0
   51.7676   53.3097   21.3431 C      0
   51.7396   51.9656   20.7960 C      0
   51.9096   51.9216   19.6980 O      0
   51.4166   51.0156   21.5241 N      0
   52.0866   57.0348   21.6141 C      0
   53.5137   57.6698   21.6281 C      0
   54.5447   57.4328   22.6991 O      0
   51.3836   57.4548   20.3360 C      0
   49.8726   57.5478   20.5310 C      0
   49.2326   57.6458   19.2370 N      0
   48.7365   58.8119   18.7009 C      0
   48.2695   58.5698   17.4429 C      0
   48.4765   57.1808   17.2269 C      0
   49.0845   56.6538   18.3899 C      0
   48.1555   56.3388   16.1958 C      0
   48.4475   54.9777   16.2978 C      0
   49.0845   54.5037   17.4479 C      0
   49.3716   55.3587   18.4799 C      0
   49.3146   53.2467   17.7219 N      0
   49.2576   52.2036   16.8538 C      0
   48.7475   52.3297   15.7668 O      0
   49.5206   51.0826   17.4439 N      0
   49.2976   49.8236   16.7828 C      0
   47.7275   49.3506   18.7009 C      0
   48.0335   49.2206   17.3559 C      0
   47.1695   48.5155   16.5368 C      0
   45.9955   47.9875   17.0609 C      0
   45.6604   48.1395   18.4159 C      0
   46.5715   48.7735   19.2020 C      0
   51.5314   57.4639   22.4469 H      0
   47.8314   59.2879   16.7513 H      0
   54.7594   56.4643   22.7434 H      0
   47.4088   48.3746   15.4838 H      0
   49.6351   58.4305   21.1229 H      0
   49.5162   56.6578   21.0475 H      0
   46.3840   48.8303   20.2732 H      0
   53.3544   58.7469   21.6091 H      0
   53.9824   57.3557   20.6967 H      0
   50.1401   49.1570   16.9606 H      0
   49.1802   49.9826   15.7119 H      0
   45.3188   47.4425   16.4043 H      0
   44.7186   47.7684   18.8173 H      0
   51.5953   56.7219   19.5589 H      0
   51.7610   58.4290   20.0287 H      0
   49.8905   51.0911   18.3890 H      0
   49.5610   53.0275   18.6818 H      0
   48.1826   54.2945   15.4922 H      0
   51.7147   55.4087   23.8503 H      0
   52.0937   54.6737   19.6810 H      0
   51.3948   50.0729   21.1485 H      0
   51.1740   51.1805   22.4958 H      0
   47.6745   56.7293   15.3002 H      0
   49.8401   54.9729   19.3841 H      0
   48.3929   49.9041   19.3619 H      0
   48.7195   59.7779   19.2033 H      0
  1  2  1
  1  5  2
  2  3  1
  2  9  1
  3  4  2
  4  5  1
  5  6  1
  6  7  2
  6  8  1
  9 10  1
  9 12  1
 10 11  1
 12 13  1
 13 14  1
 14 15  1
 14 18  1
 15 16  2
 16 17  1
 17 18  4
 17 19  4
 18 22  4
 19 20  4
 20 21  4
 21 22  4
 21 23  1
 23 24  1
 24 25  2
 24 26  1
 26 27  1
 27 29  1
 28 29  4
 28 33  4
 29 30  4
 30 31  4
 31 32  4
 32 33  4
  9 34  1
 16 35  1
 11 36  1
 30 37  1
 13 38  1
 13 39  1
 33 40  1
 10 41  1
 10 42  1
 27 43  1
 27 44  1
 31 45  1
 32 46  1
 12 47  1
 12 48  1
 26 49  1
 23 50  1
 20 51  1
  3 52  1
  1 53  1
  8 54  1
  8 55  1
 19 56  1
 22 57  1
 28 58  1
 15 59  1
M  END
$$$$
