@<TRIPOS>MOLECULE
D:LPR702
     5     4     1     0     0
SMALL
NO_CHARGES
****
Generated from the CSD

@<TRIPOS>ATOM
     1 C9      40.0810  33.2840  42.2240   C.3       1 LPR702   0.0000
     2 H1      41.1700  33.2840  42.2240   H         1 LPR702   0.0000
     3 H2      39.7180  34.1732  41.7106   H         1 LPR702   0.0000
     4 H3      39.7180  32.3948  41.7106   H         1 LPR702   0.0000
     5 H4      39.7180  33.2840  43.2507   H         1 LPR702   0.0000
@<TRIPOS>BOND
     1     1     2    1
     2     1     3    1
     3     1     4    1
     4     1     5    1
@<TRIPOS>SUBSTRUCTURE
     1 LPR702      1 GROUP             0 D     LPR     0  
