A:LPR702
  --CCDC--012419    3D                              

 57 58  0  0  0  0  0  0  0  0999 V2000
   43.3677   36.1993   48.2674 O      0
   41.9378   37.2812   47.0675 O      0
   42.2578   36.2653   47.6524 C      0
   41.3138   35.0633   47.6804 C      0
   40.5848   35.3633   48.9304 C      0
   39.4068   36.2973   49.1614 C      0
   38.8459   36.3993   50.5474 C      0
   38.5649   35.2043   51.3293 C      0
   38.0149   35.3173   52.6543 C      0
   37.7359   36.6252   53.2163 C      0
   38.0129   37.8202   52.4413 C      0
   38.5669   37.7082   51.1103 C      0
   41.8958   34.0614   47.2645 N      0
   43.3277   27.7727   44.0856 N      3
   41.5008   34.0504   44.8385 C      0
   42.6108   33.8504   45.9415 C      0
   40.2898   33.7414   45.1185 O      0
   43.2507   32.4714   45.7825 C      0
   42.4828   31.2465   45.5345 C      0
   43.2947   30.0606   44.8405 C      0
   42.4858   28.8936   44.6275 C      0
   38.8419   33.3664   41.8656 O      0
   40.7018   32.2705   42.3246 O      0
   41.8088   34.5313   43.5976 N      0
   40.7138   34.6833   42.5576 C      0
   41.5038   35.2353   41.3517 C      0
   42.8247   35.3673   41.6786 C      0
   43.1367   34.9543   43.0606 C      0
   40.0798   33.2824   42.2226 C      0
   37.8079   34.4201   53.2357 H      0
   41.6425   31.5010   44.8901 H      0
   42.1097   30.8839   46.4912 H      0
   41.3543   35.7287   49.6089 H      0
   40.2293   34.3928   49.2735 H      0
   44.1349   29.7917   45.4791 H      0
   43.6670   30.4083   43.8780 H      0
   41.1905   33.3319   47.2889 H      0
   39.9539   35.3904   42.8870 H      0
   41.0724   35.4831   40.3829 H      0
   43.5758   35.7419   40.9847 H      0
   43.8439   34.1262   43.0706 H      0
   43.5433   35.7858   43.6344 H      0
   37.8034   38.8024   52.8624 H      0
   38.7717   34.2208   50.9100 H      0
   38.5996   35.9663   48.5097 H      0
   39.7244   37.2965   48.8671 H      0
   37.3190   36.7102   54.2187 H      0
   43.8064   32.2934   46.7020 H      0
   43.9464   32.5604   44.9494 H      0
   44.0636   27.5511   44.7486 H      0
   42.7467   26.9535   43.9388 H      0
   43.7415   28.0564   43.2033 H      0
   40.5890   35.2851   46.8985 H      0
   38.7749   38.6059   50.5300 H      0
   42.0418   28.5858   45.5731 H      0
   41.6963   29.1279   43.9150 H      0
   43.3759   34.6160   45.8221 H      0
  1  3  4
  2  3  4
  3  4  1
  4  5  1
  4 13  1
  5  6  1
  6  7  1
  7  8  4
  7 12  4
  8  9  4
  9 10  4
 10 11  4
 11 12  4
 13 16  1
 14 21  1
 15 16  1
 15 17  2
 15 24  1
 16 18  1
 18 19  1
 19 20  1
 20 21  1
 22 29  4
 23 29  4
 24 25  1
 24 28  1
 25 26  1
 25 29  1
 26 27  2
 27 28  1
  9 30  1
 19 31  1
 19 32  1
  5 33  1
  5 34  1
 20 35  1
 20 36  1
 13 37  1
 25 38  1
 26 39  1
 27 40  1
 28 41  1
 28 42  1
 11 43  1
  8 44  1
  6 45  1
  6 46  1
 10 47  1
 18 48  1
 18 49  1
 14 50  1
 14 51  1
 14 52  1
  4 53  1
 12 54  1
 21 55  1
 21 56  1
 16 57  1
M  CHG  1  14   1
M  END
$$$$
