B:ABF1269
  --CCDC--012419    3D                              

 23 23  0  0  0  0  0  0  0  0999 V2000
   21.7592   19.8370   19.9983 C      0
   23.1142   20.3290   19.8873 O      0
   21.2082   19.9720   18.7343 C      0
   19.9262   19.7700   18.5843 O      0
   21.7522   21.1200   18.2013 C      0
   21.8192   21.2261   16.8913 O      0
   22.9382   21.3460   18.8663 C      0
   23.2642   22.7320   19.4013 C      0
   24.6382   22.7810   19.8573 O      0
   25.3412   24.0820   20.4973 P      0
   25.0902   25.2331   19.5993 O      5
   24.7532   24.3060   21.8774 O      5
   26.7532   23.6160   20.5743 O      5
   21.0992   20.4540   20.9193 O      0
   23.7145   21.1408   18.1307 H      0
   22.6004   22.9618   20.2335 H      0
   23.1214   23.4661   18.6097 H      0
   21.0624   21.4233   20.7072 H      0
   21.6698   19.1707   18.1592 H      0
   21.7951   18.7778   20.2488 H      0
   19.4216   20.4124   19.1489 H      0
   21.0895   21.9237   18.5189 H      0
   20.9047   21.1738   16.5078 H      0
  1  2  1
  1  3  1
  1 14  1
  2  7  1
  3  4  1
  3  5  1
  5  6  1
  5  7  1
  7  8  1
  8  9  1
  9 10  1
 10 11  4
 10 12  4
 10 13  4
  7 15  1
  8 16  1
  8 17  1
 14 18  1
  3 19  1
  1 20  1
  4 21  1
  5 22  1
  6 23  1
M  CHG  3  11  -1  12  -1  13  -1
M  END
$$$$
