A:XDL1310
  --CCDC--012419    3D                              

 35 36  0  0  0  0  0  0  0  0999 V2000
   10.0278   17.4550   14.4603 N      0
   10.4818   16.8990   15.5652 C      0
    9.8288   15.6100   16.0482 C      0
    9.6138   15.6520   17.4281 O      0
    8.5108   15.3580   15.3382 C      0
    8.7448   15.4480   13.8533 C      0
    9.0398   16.8970   13.5203 C      0
   11.4227   17.3680   16.2212 O      0
    8.0508   14.0670   15.7622 O      0
    6.6839   13.8660   15.5322 C      0
    6.3709   12.4350   15.8282 C      0
    4.8699   12.1550   15.7552 C      0
    4.1119   13.2050   16.5452 C      0
    4.5689   14.5900   16.1862 C      0
    7.0628   11.6240   14.8913 O      0
    4.6069   10.8620   16.2582 O      0
    2.7199   13.1000   16.2802 O      0
    5.9759   14.7020   16.4062 O      0
    4.9083   10.8067   17.2027 H      0
    9.0176   16.4153   17.6472 H      0
    4.0460   15.3165   16.8066 H      0
    4.3495   14.7837   15.1373 H      0
    8.0396   11.7829   14.9737 H      0
    6.4353   14.1018   14.4985 H      0
    6.7254   12.1968   16.8300 H      0
    4.5530   12.1998   14.7143 H      0
    4.2832   13.0403   17.6079 H      0
    2.3999   12.1979   16.5442 H      0
   10.4006   18.3708   14.2308 H      0
    7.8564   15.1177   13.3171 H      0
    9.5914   14.8232   13.5727 H      0
    7.7881   16.1158   15.6372 H      0
    9.4353   16.9580   12.5075 H      0
    8.1184   17.4739   13.5855 H      0
   10.5008   14.7814   15.8300 H      0
  1  2  1
  1  7  1
  2  3  1
  2  8  2
  3  4  1
  3  5  1
  5  6  1
  5  9  1
  6  7  1
  9 10  1
 10 11  1
 10 18  1
 11 12  1
 11 15  1
 12 13  1
 12 16  1
 13 14  1
 13 17  1
 14 18  1
 16 19  1
  4 20  1
 14 21  1
 14 22  1
 15 23  1
 10 24  1
 11 25  1
 12 26  1
 13 27  1
 17 28  1
  1 29  1
  6 30  1
  6 31  1
  5 32  1
  7 33  1
  7 34  1
  3 35  1
M  END
$$$$
