A:NAG301
  --CCDC--012419    3D                              

 29 29  0  0  0  0  0  0  0  0999 V2000
   50.3097    1.5630    1.3460 C      0
   51.5056    0.6310    1.7169 C      0
   51.8796   -0.3630    0.6050 C      0
   50.6107   -1.0900    0.2010 C      0
   49.5167   -0.0970   -0.1310 C      0
   48.2757   -0.8120   -0.6860 C      0
   53.1146    1.5030    3.3799 C      0
   54.2016    2.4920    3.6529 C      0
   52.6946    1.3800    2.1099 N      0
   52.6986   -1.4090    1.1320 O      0
   50.8177   -1.9930   -0.9020 O      0
   49.2637    0.6870    1.0120 O      0
   47.6657   -1.6110    0.2990 O      0
   52.6706    0.8700    4.3429 O      0
   50.5654    2.1964    0.4978 H      0
   50.0318    2.1869    2.1942 H      0
   49.8942    0.5642   -0.9096 H      0
   48.5736   -1.4437   -1.5215 H      0
   47.5610   -0.0665   -1.0314 H      0
   50.2781   -1.6784    1.0549 H      0
   51.4928   -2.6757   -0.6486 H      0
   53.2358    1.8345    1.3813 H      0
   47.3875   -1.0404    1.0625 H      0
   53.8686    3.4871    3.3616 H      0
   54.4398    2.4856    4.7155 H      0
   55.0884    2.2240    3.0805 H      0
   52.3504    0.1336   -0.2422 H      0
   51.1976    0.0437    2.5807 H      0
   52.2025   -1.8906    1.8447 H      0
  1  2  1
  1 12  1
  2  3  1
  2  9  1
  3  4  1
  3 10  1
  4  5  1
  4 11  1
  5  6  1
  5 12  1
  6 13  1
  7  8  1
  7  9  1
  7 14  2
  1 15  1
  1 16  1
  5 17  1
  6 18  1
  6 19  1
  4 20  1
 11 21  1
  9 22  1
 13 23  1
  8 24  1
  8 25  1
  8 26  1
  3 27  1
  2 28  1
 10 29  1
M  END
$$$$
