@<TRIPOS>MOLECULE
C:NAG301
     4     3     1     0     0
SMALL
NO_CHARGES
****
Generated from the CSD

@<TRIPOS>ATOM
     1 N2      52.6950   1.3800   2.1100   N.3       1 NAG301   0.0000
     2 H1      53.7100   1.3800   2.1100   H         1 NAG301   0.0000
     3 H2      52.3567   2.2087   1.6315   H         1 NAG301   0.0000
     4 H3      52.3567   0.5513   1.6315   H         1 NAG301   0.0000
@<TRIPOS>BOND
     1     1     2    1
     2     1     3    1
     3     1     4    1
@<TRIPOS>SUBSTRUCTURE
     1 NAG301      1 GROUP             0 C     NAG     0  
