@<TRIPOS>MOLECULE
B:968322
     5     4     1     0     0
SMALL
NO_CHARGES
****
Generated from the CSD

@<TRIPOS>ATOM
     1 C4      34.2580  29.2510  19.7800   C.3       1 968322   0.0000
     2 H1      35.3470  29.2510  19.7800   H         1 968322   0.0000
     3 H2      33.8950  30.1402  19.2666   H         1 968322   0.0000
     4 H3      33.8950  28.3618  19.2666   H         1 968322   0.0000
     5 H4      33.8950  29.2510  20.8067   H         1 968322   0.0000
@<TRIPOS>BOND
     1     1     2    1
     2     1     3    1
     3     1     4    1
     4     1     5    1
@<TRIPOS>SUBSTRUCTURE
     1 968322      1 GROUP             0 B     968     0  
