D:IPT2001
  --CCDC--012419    3D                              

 33 33  0  0  0  0  0  0  0  0999 V2000
   12.7860  -28.1460   22.1456 C      0
   11.5717  -27.9962   21.2491 C      0
   11.8383  -26.8791   20.3955 O      0
   10.2885  -27.7496   22.0648 C      0
    9.1411  -27.7357   21.1623 O      0
   10.1527  -28.7859   23.2036 C      0
    9.8282  -30.1186   22.7239 O      0
   11.4978  -28.8028   23.9305 C      0
   12.5623  -29.2151   23.0371 O      0
   11.5357  -30.0467   24.7971 C      0
   10.6130  -29.6943   25.8422 O      0
   14.0852  -28.7000   21.0437 S      0
   15.6220  -28.1160   21.9402 C      0
   16.8632  -28.3915   21.1005 C      0
   15.8607  -28.9296   23.2325 C      0
    9.0764  -28.6098   20.6956 H      0
   15.5470  -27.0540   22.1690 H      0
   13.0415  -27.2206   22.6597 H      0
   11.4521  -28.8948   20.6456 H      0
   10.3670  -26.7632   22.5194 H      0
    9.7190  -29.5166   25.4483 H      0
   12.5346  -30.2265   25.1919 H      0
   11.1989  -30.9248   24.2481 H      0
   16.7840  -27.8635   20.1514 H      0
   17.7470  -28.0466   21.6351 H      0
   16.9458  -29.4614   20.9149 H      0
   15.9847  -29.9820   22.9813 H      0
   16.7592  -28.5667   23.7292 H      0
   15.0062  -28.8135   23.8976 H      0
   12.6559  -27.0585   19.8612 H      0
   11.7135  -27.8840   24.4738 H      0
    9.3779  -28.4570   23.8946 H      0
   10.5448  -30.4342   22.1133 H      0
  1  2  1
  1  9  1
  1 12  1
  2  3  1
  2  4  1
  4  5  1
  4  6  1
  6  7  1
  6  8  1
  8  9  1
  8 10  1
 10 11  1
 12 13  1
 13 14  1
 13 15  1
  5 16  1
 13 17  1
  1 18  1
  2 19  1
  4 20  1
 11 21  1
 10 22  1
 10 23  1
 14 24  1
 14 25  1
 14 26  1
 15 27  1
 15 28  1
 15 29  1
  3 30  1
  8 31  1
  6 32  1
  7 33  1
M  END
$$$$
