B:IXM452
  --CCDC--012419    3D                              

 32 35  0  0  0  0  0  0  0  0999 V2000
   24.9611  -18.5295    9.4699 C      0
   23.5001  -18.2045    9.3809 C      0
   25.2801  -19.2265    8.2729 C      0
   24.1721  -19.3625    7.4709 N      0
   26.5881  -19.6855    8.0169 C      0
   27.6051  -19.4415    8.9959 C      0
   27.2891  -18.7435   10.2059 C      0
   25.9571  -18.2795   10.4479 C      0
   23.0411  -18.7895    8.0309 C      0
   21.7991  -18.7305    7.4419 C      0
   21.5961  -19.5075    6.1299 C      0
   20.3101  -19.2065    5.7039 N      0
   19.6701  -18.3425    6.5889 C      0
   20.5161  -18.0125    7.6849 C      0
   18.3531  -17.8315    6.4379 C      0
   17.8581  -16.9495    7.4309 C      0
   18.6801  -16.6005    8.5479 C      0
   20.0111  -17.1305    8.6779 C      0
   22.3931  -20.2294    5.5499 O      0
   22.7231  -17.5665   10.2109 N      0
   23.3141  -17.0925   11.3919 O      0
   19.8893  -19.5700    4.8548 H      0
   25.7132  -17.7451   11.3649 H      0
   28.0673  -18.5647   10.9464 H      0
   28.6223  -19.7880    8.8194 H      0
   26.8207  -20.2146    7.0940 H      0
   24.1812  -19.8299    6.5700 H      0
   16.8535  -16.5383    7.3434 H      0
   18.2936  -15.9251    9.3097 H      0
   17.7402  -18.1101    5.5820 H      0
   20.6282  -16.8573    9.5326 H      0
   24.0441  -16.4586   11.1654 H      0
  1  2  1
  1  3  4
  1  8  4
  2  9  1
  2 20  2
  3  4  1
  3  5  4
  4  9  1
  5  6  4
  6  7  4
  7  8  4
  9 10  2
 10 11  1
 10 14  1
 11 12  1
 11 19  2
 12 13  1
 13 14  4
 13 15  4
 14 18  4
 15 16  4
 16 17  4
 17 18  4
 20 21  1
 12 22  1
  8 23  1
  7 24  1
  6 25  1
  5 26  1
  4 27  1
 16 28  1
 17 29  1
 15 30  1
 18 31  1
 21 32  1
M  END
$$$$
