B:BPG2
  --CCDC--012419    3D                              

 37 39  0  0  0  0  0  0  0  0999 V2000
   17.6113   95.7405   45.0175 C      0
   16.2854   95.4415   45.2805 O      0
   17.4803   97.1584   45.4455 C      0
   18.8583   97.6454   45.6224 C      0
   19.4232   97.7864   44.2465 C      0
   20.8432   98.1823   44.4555 N      0
   21.9531   97.3364   44.6295 C      0
   21.9201   96.0015   44.6435 N      0
   23.1241   95.4365   44.7835 C      0
   23.1871   94.0436   44.7575 N      0
   24.2641   96.1875   44.9035 N      0
   24.3311   97.5744   44.8935 C      0
   25.3890   98.1903   45.0155 O      0
   23.0501   98.1383   44.7565 C      0
   22.6621   99.4712   44.6775 N      0
   21.3822   99.4102   44.5015 C      0
   20.1702   91.1988   44.1015 C      0
   19.9162   92.5277   43.7935 C      0
   20.9132   93.4806   43.9795 C      0
   22.1541   93.1137   44.5015 C      0
   22.4101   91.7898   44.7915 C      0
   21.4202   90.8308   44.6045 C      0
   17.8758   95.6318   43.9667 H      0
   18.3095   95.1702   45.6284 H      0
   15.6993   96.0211   44.7267 H      0
   16.5588   97.7188   45.5963 H      0
   19.3626   97.8591   46.5637 H      0
   18.8890   98.5547   43.6896 H      0
   19.3640   96.8411   43.7090 H      0
   24.0998   93.6428   44.9486 H      0
   25.1391   95.6841   45.0093 H      0
   20.7743  100.3077   44.3962 H      0
   19.3980   90.4457   43.9516 H      0
   18.9416   92.8235   43.4082 H      0
   20.7235   94.5201   43.7158 H      0
   23.3887   91.4949   45.1674 H      0
   21.6204   89.7892   44.8512 H      0
  1  2  1
  1  3  1
  3  4  2
  4  5  1
  5  6  1
  6  7  1
  6 16  1
  7  8  1
  7 14  2
  8  9  2
  9 10  1
  9 11  1
 10 20  1
 11 12  1
 12 13  2
 12 14  1
 14 15  1
 15 16  2
 17 18  4
 17 22  4
 18 19  4
 19 20  4
 20 21  4
 21 22  4
  1 23  1
  1 24  1
  2 25  1
  3 26  1
  4 27  1
  5 28  1
  5 29  1
 10 30  1
 11 31  1
 16 32  1
 17 33  1
 18 34  1
 19 35  1
 21 36  1
 22 37  1
M  END
$$$$
