A:097518
  --CCDC--012419    3D                              

 52 51  0  0  0  0  0  0  0  0999 V2000
    9.2378   13.3088   24.5115 N      0
   11.0488   16.6577   24.4835 C      0
   11.1368   12.5038   22.5225 O      0
    9.3708   13.6008   25.8145 C      0
    7.7668   18.2017   29.0494 O      0
    9.4498   11.9228   24.1195 C      0
    8.2888   11.4528   23.2335 C      0
    8.1578   12.3858   22.0146 C      0
    8.5448   10.0128   22.7585 C      0
   10.7828   11.7328   23.4155 C      0
   12.7667   10.3808   23.2205 C      0
    7.9158   16.8477   28.8534 N      0
    7.6328   16.5307   27.5804 C      0
    7.1609   17.3407   26.7865 O      0
    7.9408   15.1228   27.1534 C      0
    6.7809   14.4758   26.6525 O      0
    9.0898   15.0578   26.1485 C      0
   10.3528   15.7167   26.7195 C      0
   11.4958   15.8797   25.7055 C      0
   12.6807   16.5887   26.3595 C      0
    9.6758   12.7948   26.6935 O      0
    6.9899   11.5008   24.0575 C      0
   11.4998   10.6888   23.8775 N      0
    9.0001   14.0222   23.8298 H      0
    8.6273    9.3549   23.6224 H      0
    7.7177    9.6853   22.1305 H      0
    9.4708    9.9785   22.1864 H      0
   10.7137   15.1042   27.5443 H      0
   10.0836   16.7043   27.0913 H      0
   13.4340   11.2379   23.2987 H      0
   13.2253    9.5186   23.7024 H      0
   12.5859   10.1562   22.1704 H      0
    8.1988   16.1849   29.5681 H      0
    8.2570   14.5775   28.0415 H      0
    6.4349   14.9771   25.8682 H      0
    8.7965   15.5804   25.2393 H      0
   10.7135   17.6485   24.7866 H      0
   11.8822   16.7532   23.7891 H      0
   10.2296   16.1303   23.9970 H      0
    9.0828   12.3646   21.4401 H      0
    7.3332   12.0501   21.3874 H      0
    7.9649   13.4022   22.3545 H      0
   11.8185   14.8899   25.3862 H      0
   12.3830   17.5926   26.6587 H      0
   13.0000   16.0282   27.2368 H      0
   13.5038   16.6508   25.6490 H      0
    6.8102   12.5212   24.3928 H      0
    6.1561   11.1693   23.4404 H      0
    7.0842   10.8459   24.9224 H      0
   11.1684   10.1330   24.6595 H      0
    9.4544   11.3133   25.0220 H      0
    6.8303   18.4640   28.8493 H      0
  1  4  1
  1  6  1
  2 19  1
  3 10  2
  4 17  1
  4 21  2
  5 12  1
  6  7  1
  6 10  1
  7  8  1
  7  9  1
  7 22  1
 10 23  1
 11 23  1
 12 13  1
 13 14  2
 13 15  1
 15 16  1
 15 17  1
 17 18  1
 18 19  1
 19 20  1
  1 24  1
  9 25  1
  9 26  1
  9 27  1
 18 28  1
 18 29  1
 11 30  1
 11 31  1
 11 32  1
 12 33  1
 15 34  1
 16 35  1
 17 36  1
  2 37  1
  2 38  1
  2 39  1
  8 40  1
  8 41  1
  8 42  1
 19 43  1
 20 44  1
 20 45  1
 20 46  1
 22 47  1
 22 48  1
 22 49  1
 23 50  1
  6 51  1
  5 52  1
M  END
$$$$
