A:FLP501
  --CCDC--012419    3D                              

 30 31  0  0  0  0  0  0  0  0999 V2000
    7.1648   28.7989   -3.4188 C      0
    7.9958   29.9069   -2.9778 C      0
    7.4048   31.1299   -2.4088 C      0
    5.9178   31.1849   -2.3548 C      0
    5.1098   30.0929   -2.7938 C      0
    5.7328   28.9189   -3.3468 C      0
    8.2077   32.2178   -1.9229 C      0
    9.4767   31.9338   -1.1839 C      0
   10.2927   32.9958   -0.6700 C      0
    9.9837   34.3867   -0.9679 C      0
    8.7717   34.6877   -1.6769 C      0
    7.9398   33.6518   -2.2258 C      0
   10.8537   35.5867   -0.4360 C      0
   10.2097   36.2997    0.8069 C      0
   11.1197   36.6247   -1.6109 C      0
   10.5877   37.7386   -1.5959 O      0
   11.8686   36.2887   -2.5548 O      0
    6.8128   34.0887   -2.9118 F      0
    8.4751   35.7280   -1.8020 H      0
    5.1090   28.1069   -3.7173 H      0
    9.0782   29.8311   -3.0701 H      0
   11.8168   35.1849   -0.1249 H      0
   10.0986   35.5830    1.6193 H      0
   10.8524   37.1174    1.1297 H      0
    9.2317   36.6929    0.5335 H      0
    4.0254   30.1479   -2.7106 H      0
    9.7872   30.9010   -1.0332 H      0
   11.1548   32.7582   -0.0485 H      0
    5.4340   32.0815   -1.9704 H      0
    7.6216   27.8868   -3.8000 H      0
  1  2  4
  1  6  4
  2  3  4
  3  4  4
  3  7  1
  4  5  4
  5  6  4
  7  8  4
  7 12  4
  8  9  4
  9 10  4
 10 11  4
 10 13  1
 11 12  4
 12 18  1
 13 14  1
 13 15  1
 15 16  4
 15 17  4
 11 19  1
  6 20  1
  2 21  1
 13 22  1
 14 23  1
 14 24  1
 14 25  1
  5 26  1
  8 27  1
  9 28  1
  4 29  1
  1 30  1
M  END
$$$$
