A:2GP105
  --CCDC--012419    3D                              

 36 38  0  0  0  0  0  0  0  0999 V2000
   19.6640   35.4298   19.2180 P      0
   20.7560   35.1858   18.0640 O      5
   20.1580   36.6048   20.0270 O      5
   18.4070   35.4498   18.5110 O      5
   17.7700   34.7748   23.9900 O      0
   18.7590   33.9348   24.5860 C      0
   19.4260   33.0728   23.5410 C      0
   18.3890   32.3118   22.8240 O      0
   20.2770   33.7638   22.4530 C      0
   21.2650   32.8318   22.0490 O      0
   19.2330   33.9198   21.3340 C      0
   19.9030   34.1538   20.1060 O      0
   18.5040   32.6078   21.4160 C      0
   17.1880   32.4228   20.8480 N      0
   16.7810   31.3608   20.1310 C      0
   15.4920   31.2708   20.0350 N      0
   14.9600   32.3308   20.7650 C      0
   13.6370   32.7548   21.0280 C      0
   12.5270   32.2978   20.6690 O      0
   13.5740   33.8898   21.8150 N      0
   14.7280   34.5258   22.2670 C      0
   14.4850   35.5958   23.0320 N      0
   15.9480   34.1528   22.0390 N      0
   16.0190   33.0398   21.2750 C      0
   19.1532   31.8504   20.9792 H      0
   17.0802   34.2127   23.5494 H      0
   17.4665   30.6473   19.6762 H      0
   20.8247   32.0186   21.6873 H      0
   18.2844   33.2945   25.3280 H      0
   19.5110   34.5560   25.0704 H      0
   18.5569   34.7433   21.5592 H      0
   12.6670   34.2680   22.0690 H      0
   20.0646   32.3582   24.0581 H      0
   15.2572   36.1326   23.4139 H      0
   13.5284   35.8710   23.2306 H      0
   20.6963   34.7142   22.7799 H      0
  1  2  4
  1  3  4
  1  4  4
  1 12  1
  5  6  1
  6  7  1
  7  8  1
  7  9  1
  8 13  1
  9 10  1
  9 11  1
 11 12  1
 11 13  1
 13 14  1
 14 15  1
 14 24  1
 15 16  2
 16 17  1
 17 18  1
 17 24  2
 18 19  2
 18 20  1
 20 21  1
 21 22  1
 21 23  2
 23 24  1
 13 25  1
  5 26  1
 15 27  1
 10 28  1
  6 29  1
  6 30  1
 11 31  1
 20 32  1
  7 33  1
 22 34  1
 22 35  1
  9 36  1
M  CHG  3   2  -1   3  -1   4  -1
M  END
$$$$
