A:DIH300
  --CCDC--012419    3D                              

 35 37  0  0  0  0  0  0  0  0999 V2000
    1.3120   21.8528   23.8417 O      0
    1.5899   20.5649   23.3087 C      0
    2.9129   19.9849   22.9647 C      0
    3.7639   19.9480   24.1687 C      0
    2.8199   18.5950   22.4277 C      0
    3.6109   18.2920   21.2807 O      0
    3.0779   17.9171   23.7157 C      0
    4.1919   18.5790   24.3567 N      0
    4.4019   18.2780   25.7616 C      0
    3.4479   18.4390   26.8886 C      0
    3.2649   19.5190   27.7306 C      0
    2.3269   19.3600   28.6326 N      0
    1.8269   18.0900   28.4136 C      0
    0.7630   17.3621   29.0946 C      0
    0.0910   17.7611   30.0396 O      0
    0.5250   16.0512   28.5786 N      0
    1.2350   15.4772   27.4886 C      0
    2.2389   16.1691   26.8366 N      0
    2.4979   17.4841   27.3366 C      0
    2.0315   20.0259   29.3394 H      0
    4.5705   18.4330   21.4937 H      0
    0.9824   14.4702   27.1600 H      0
    5.2652   18.8783   26.0449 H      0
    4.6717   17.2232   25.7790 H      0
    3.3897   20.6181   22.2178 H      0
    3.1961   20.2824   25.0357 H      0
    4.6305   20.5929   24.0314 H      0
    3.8540   20.4314   27.6512 H      0
    1.6395   22.5487   23.2136 H      0
    1.7787   18.4142   22.1649 H      0
   -0.1989   15.4926   29.0194 H      0
    1.0201   20.5211   22.3817 H      0
    1.1632   19.8698   24.0302 H      0
    3.3222   16.8705   23.5395 H      0
    2.1952   17.9819   24.3502 H      0
  1  2  1
  2  3  1
  3  4  1
  3  5  1
  4  8  1
  5  6  1
  5  7  1
  7  8  1
  8  9  1
  9 10  1
 10 11  2
 10 19  1
 11 12  1
 12 13  1
 13 14  1
 13 19  2
 14 15  2
 14 16  1
 16 17  1
 17 18  2
 18 19  1
 12 20  1
  6 21  1
 17 22  1
  9 23  1
  9 24  1
  3 25  1
  4 26  1
  4 27  1
 11 28  1
  1 29  1
  5 30  1
 16 31  1
  2 32  1
  2 33  1
  7 34  1
  7 35  1
M  END
$$$$
