@<TRIPOS>MOLECULE
E:DIH300
     5     4     1     0     0
SMALL
NO_CHARGES
****
Generated from the CSD

@<TRIPOS>ATOM
     1 C4      13.8930 -10.9060  27.3370   C.3       1 DIH300   0.0000
     2 H1      14.9820 -10.9060  27.3370   H         1 DIH300   0.0000
     3 H2      13.5300 -10.0168  26.8236   H         1 DIH300   0.0000
     4 H3      13.5300 -11.7952  26.8236   H         1 DIH300   0.0000
     5 H4      13.5300 -10.9060  28.3637   H         1 DIH300   0.0000
@<TRIPOS>BOND
     1     1     2    1
     2     1     3    1
     3     1     4    1
     4     1     5    1
@<TRIPOS>SUBSTRUCTURE
     1 DIH300      1 GROUP             0 E     DIH     0  
