B:IMZ111
  --CCDC--012419    3D                              

 75 79  0  0  0  0  0  0  0  0999 V2000
   30.6194   11.7101   24.2035 C      0
   30.8924   12.5011   22.9425 C      0
   31.2084   13.8581   22.9875 C      0
   31.3994   14.5841   21.7986 C      0
   30.7754   11.8761   21.7146 C      0
   30.9595   12.5761   20.5376 C      0
   31.2685   13.9251   20.5816 C      0
   31.4635   14.8501   18.9926 Br     0
   30.3454   12.5291   25.3685 N      0
   30.8923   11.9221   26.4675 C      0
   30.8483   12.4271   27.8384 C      0
   31.9963   12.4551   28.6434 C      0
   33.1623   11.9421   28.0924 O      0
   34.2903   11.9221   28.9524 C      0
   35.4223   11.1611   28.3204 C      0
   31.9443   12.9721   29.9234 C      0
   29.6523   12.9331   28.3614 C      0
   29.5953   13.4631   29.6504 C      0
   30.7523   13.4831   30.4334 C      0
   30.7352   14.0261   31.7084 O      0
   29.7562   15.0501   31.9083 C      0
   31.5844   10.7311   26.1015 N      0
   32.0163    9.7711   26.9554 C      0
   32.9953    9.0761   26.6775 O      0
   31.4263    9.6761   28.1664 N      0
   29.9483    9.7881   28.3664 C      0
   29.3973    8.6111   29.1724 C      0
   30.2283    8.3441   30.3654 N      0
   29.6242    7.5461   31.4664 C      0
   28.1032    7.6541   31.4664 C      0
   27.5112    6.6331   32.2613 O      0
   32.2523    9.3021   29.3434 C      0
   31.6643    8.1281   30.1044 C      0
   31.7584   10.7411   24.6435 C      0
   33.1454   11.2971   24.2465 C      0
   33.7594   12.3181   24.9715 C      0
   35.0144   12.8281   24.5785 C      0
   33.7964   10.7881   23.1295 C      0
   35.0424   11.2861   22.7295 C      0
   35.6454   12.3051   23.4545 C      0
   37.2864   12.9811   22.8895 Br     0
   29.7334   11.1043   24.0191 H      0
   30.5344   10.8149   21.6745 H      0
   31.3079   14.3590   23.9494 H      0
   28.6588   13.8572   30.0423 H      0
   34.0165   11.4428   29.8911 H      0
   34.6106   12.9446   29.1468 H      0
   35.7017   11.6386   27.3824 H      0
   36.2777   11.1567   28.9944 H      0
   35.1076   10.1367   28.1267 H      0
   32.8424   12.9804   30.5392 H      0
   28.7506   12.9126   27.7511 H      0
   31.6048    9.7466   24.2271 H      0
   28.7627   14.6431   31.7261 H      0
   29.8167   15.4151   32.9326 H      0
   29.9441   15.8716   31.2186 H      0
   29.4607    9.8086   27.3929 H      0
   29.7331   10.7129   28.8997 H      0
   30.8619   12.0687   19.5789 H      0
   31.6458   15.6444   21.8305 H      0
   29.3856    7.7233   28.5418 H      0
   28.3822    8.8432   29.4913 H      0
   30.0049    7.9123   32.4187 H      0
   29.9047    6.5013   31.3410 H      0
   27.7413    7.5616   30.4434 H      0
   27.8168    8.6256   31.8663 H      0
   27.8332    6.7138   33.1972 H      0
   32.3164   10.1581   30.0135 H      0
   33.2505    9.0337   29.0007 H      0
   31.7882    7.2212   29.5144 H      0
   32.1877    8.0183   31.0530 H      0
   33.2641   12.7263   25.8512 H      0
   35.4859   13.6256   25.1509 H      0
   33.3299    9.9887   22.5557 H      0
   35.5377   10.8748   21.8512 H      0
  1  2  1
  1  9  1
  1 34  1
  2  3  4
  2  5  4
  3  4  4
  4  7  4
  5  6  4
  6  7  4
  7  8  1
  9 10  2
 10 11  1
 10 22  1
 11 12  4
 11 17  4
 12 13  1
 12 16  4
 13 14  1
 14 15  1
 16 19  4
 17 18  4
 18 19  4
 19 20  1
 20 21  1
 22 23  1
 22 34  1
 23 24  2
 23 25  1
 25 26  1
 25 32  1
 26 27  1
 27 28  1
 28 29  1
 28 33  1
 29 30  1
 30 31  1
 32 33  1
 34 35  1
 35 36  4
 35 38  4
 36 37  4
 37 40  4
 38 39  4
 39 40  4
 40 41  1
  1 42  1
  5 43  1
  3 44  1
 18 45  1
 14 46  1
 14 47  1
 15 48  1
 15 49  1
 15 50  1
 16 51  1
 17 52  1
 34 53  1
 21 54  1
 21 55  1
 21 56  1
 26 57  1
 26 58  1
  6 59  1
  4 60  1
 27 61  1
 27 62  1
 29 63  1
 29 64  1
 30 65  1
 30 66  1
 31 67  1
 32 68  1
 32 69  1
 33 70  1
 33 71  1
 36 72  1
 37 73  1
 38 74  1
 39 75  1
M  END
$$$$
