@<TRIPOS>MOLECULE
L:5AP1900
     5     4     1     0     0
SMALL
NO_CHARGES
****
Generated from the CSD

@<TRIPOS>ATOM
     1 C29     65.9230  67.2450  76.4800   C.3       1 5AP1900   0.0000
     2 H1      67.0120  67.2450  76.4800   H         1 5AP1900   0.0000
     3 H2      65.5600  68.1342  75.9666   H         1 5AP1900   0.0000
     4 H3      65.5600  66.3558  75.9666   H         1 5AP1900   0.0000
     5 H4      65.5600  67.2450  77.5067   H         1 5AP1900   0.0000
@<TRIPOS>BOND
     1     1     2    1
     2     1     3    1
     3     1     4    1
     4     1     5    1
@<TRIPOS>SUBSTRUCTURE
     1 5AP1900     1 GROUP             0 L     5AP     0  
