A:8691501
  --CCDC--012419    3D                              

 57 59  0  0  0  0  0  0  0  0999 V2000
   45.7414    1.5990    8.0698 O      0
   47.1164    1.8760    8.3898 C      0
   44.8064    1.1630    5.7869 C      0
   44.9834    0.5580    4.5249 C      0
   46.1784   -0.1590    4.3239 C      0
   47.1744   -0.2880    5.2559 C      0
   46.9694    0.3120    6.5099 C      0
   45.7784    1.0360    6.7609 C      0
   44.9714   -1.3850    2.7409 C      0
   44.9264   -1.7960    1.3680 C      0
   46.0014   -1.3190    0.5940 C      0
   47.0634   -0.4980    1.0990 C      0
   47.0734   -0.0570    2.4269 C      0
   45.9914   -0.5360    3.2609 C      0
   43.9274   -1.8440    3.5889 C      0
   44.7364   -4.1020    0.6560 C      0
   43.6304   -4.8120    0.4470 C      0
   45.9514   -4.7200    0.7620 C      0
   44.1144   -6.0720    0.4150 N      0
   45.5964   -5.9980    0.6170 N      0
   42.2853   -4.5980    0.2980 O      0
   44.1034   -2.9680    0.6160 C      0
   42.8233   -2.6630    0.4160 O      0
   48.3164    0.7470    2.8369 S      0
   49.2614    0.2880    2.2240 O      0
   48.6464    0.6080    4.1629 O      0
   48.4054    1.9280    2.6669 C      0
   43.6244   -7.5700    0.4260 C      0
   43.3964   -7.8750    1.9170 C      0
   42.4493   -7.8120   -0.4330 C      0
   44.6534   -8.6610    0.0180 C      0
   42.1288   -4.0080   -0.4852 H      0
   45.5039   -8.6300    0.6974 H      0
   44.1826   -9.6416    0.0702 H      0
   44.9946   -8.4759   -0.9995 H      0
   42.6940   -7.5570   -1.4630 H      0
   42.1683   -8.8626   -0.3761 H      0
   41.6185   -7.1951   -0.0938 H      0
   42.6457   -7.1945    2.3160 H      0
   43.0515   -8.9019    2.0288 H      0
   44.3306   -7.7445    2.4612 H      0
   47.6071    2.4338    3.2081 H      0
   49.3698    2.2759    3.0340 H      0
   48.3203    2.1492    1.6040 H      0
   46.9382   -4.2878    0.9211 H      0
   43.9293   -2.9328    3.6103 H      0
   44.0830   -1.4609    4.5963 H      0
   42.9698   -1.4901    3.2099 H      0
   47.8783   -0.2121    0.4356 H      0
   46.0283   -1.5920   -0.4599 H      0
   47.7257    0.2204    7.2880 H      0
   48.0897   -0.8345    5.0334 H      0
   44.2306    0.6416    3.7424 H      0
   43.9011    1.7318    5.9941 H      0
   47.5249    2.5748    7.6613 H      0
   47.1764    2.3131    9.3854 H      0
   47.6886    0.9498    8.3649 H      0
  1  2  1
  1  8  1
  3  4  4
  3  8  4
  4  5  4
  5  6  4
  5 14  1
  6  7  4
  7  8  4
  9 10  4
  9 14  4
  9 15  1
 10 11  4
 10 22  1
 11 12  4
 12 13  4
 13 14  4
 13 24  1
 16 17  2
 16 18  1
 16 22  1
 17 19  1
 17 21  1
 18 20  2
 19 20  1
 19 28  1
 22 23  2
 24 25  2
 24 26  2
 24 27  1
 28 29  1
 28 30  1
 28 31  1
 21 32  1
 31 33  1
 31 34  1
 31 35  1
 30 36  1
 30 37  1
 30 38  1
 29 39  1
 29 40  1
 29 41  1
 27 42  1
 27 43  1
 27 44  1
 18 45  1
 15 46  1
 15 47  1
 15 48  1
 12 49  1
 11 50  1
  7 51  1
  6 52  1
  4 53  1
  3 54  1
  2 55  1
  2 56  1
  2 57  1
M  END
$$$$
