A:NDR1001
  --CCDC--012419    3D                              

 46 49  0  0  0  0  0  0  0  0999 V2000
   -4.1220   -1.1470   30.7680 O      0
   -3.7310   -0.3340   29.9590 C      0
   -4.4900    0.9880   29.7420 C      0
   -2.5860   -0.6780   29.1600 C      0
   -2.1910    0.2160   28.1060 C      0
   -0.8560   -0.1210   27.4590 C      0
   -2.9580    1.3330   27.6770 C      0
   -4.3850    1.2920   28.2630 C      0
   -2.8080    1.6270   26.2540 C      0
   -1.6160    1.3810   25.5500 C      0
   -0.9620    0.0700   25.9880 C      0
   -3.6500    2.8189   25.7550 C      0
   -3.4930    3.0749   24.1940 C      0
   -2.1050    2.9939   23.6570 C      0
   -1.4440    1.7140   24.1630 C      0
   -1.4140    4.2379   24.2320 C      0
   -1.8860    2.9149   22.1190 C      0
   -1.9890    4.1549   21.4200 O      0
   -0.4500    2.3469   22.0170 C      0
   -0.2250    1.5110   23.2800 C      0
   -2.8680    2.0189   21.4830 C      0
   -3.7620    1.2630   20.9700 C      0
   -0.5986   -1.1571   27.6739 H      0
   -0.0830    0.5350   27.8565 H      0
   -2.4913    2.1821   28.1741 H      0
   -4.8436    2.2644   28.0900 H      0
   -4.9432    0.5267   27.7258 H      0
   -2.0305   -1.5953   29.3492 H      0
   -1.3082    4.7885   21.7679 H      0
    0.2738    3.1592   21.9691 H      0
   -0.3541    1.7225   21.1300 H      0
   -0.1217    0.4586   23.0197 H      0
    0.6726    1.8469   23.7970 H      0
   -3.3345    3.7148   26.2878 H      0
   -4.6984    2.6186   25.9708 H      0
   -1.5497   -0.7523   25.5825 H      0
    0.0432    0.0383   25.5703 H      0
   -3.8762    4.0714   23.9792 H      0
   -4.0964    2.3337   23.6721 H      0
   -4.0339    1.7863   30.3256 H      0
   -5.5337    0.8770   30.0322 H      0
   -4.5236    0.6189   20.5330 H      0
   -2.1126    0.9786   23.7177 H      0
   -1.4370    4.1957   25.3200 H      0
   -0.3800    4.2687   23.8917 H      0
   -1.9347    5.1320   23.8924 H      0
  1  2  2
  2  3  1
  2  4  1
  3  8  1
  4  5  2
  5  6  1
  5  7  1
  6 11  1
  7  8  1
  7  9  1
  9 10  2
  9 12  1
 10 11  1
 10 15  1
 12 13  1
 13 14  1
 14 15  1
 14 16  1
 14 17  1
 15 20  1
 17 18  1
 17 19  1
 17 21  1
 19 20  1
 21 22  3
  6 23  1
  6 24  1
  7 25  1
  8 26  1
  8 27  1
  4 28  1
 18 29  1
 19 30  1
 19 31  1
 20 32  1
 20 33  1
 12 34  1
 12 35  1
 11 36  1
 11 37  1
 13 38  1
 13 39  1
  3 40  1
  3 41  1
 22 42  1
 15 43  1
 16 44  1
 16 45  1
 16 46  1
M  END
$$$$
