B:TFO822
  --CCDC--110118    3D                              

 15 16  0  0  0  0  0  0  0  0999 V2000
   35.6340  141.8150  -19.2430 N      0
   36.7610  141.5010  -19.8530 C      0
   36.7030  141.1380  -21.0990 N      0
   37.8680  140.9270  -21.5810 C      0
   39.0210  141.0870  -20.9220 N      0
   39.0410  141.5160  -19.6370 C      0
   40.2710  141.7460  -19.0920 N      0
   37.7810  141.7200  -19.0150 C      0
   37.3230  142.1430  -17.7660 N      0
   35.9730  142.1610  -17.9070 C      0
   34.7040  141.8103  -19.6496 H      0
   37.9267  140.5887  -22.6145 H      0
   35.2610  142.4028  -17.1193 H      0
   40.3488  142.0687  -18.1328 H      0
   41.1079  141.5943  -19.6459 H      0
  1  2  1
  1 10  1
  2  3  4
  2  8  4
  3  4  4
  4  5  4
  5  6  4
  6  7  1
  6  8  4
  8  9  1
  9 10  2
  1 11  1
  4 12  1
 10 13  1
  7 14  1
  7 15  1
M  END
$$$$
