A:STI3
  --CCDC--012419    3D                              

 68 72  0  0  0  0  0  0  0  0999 V2000
   32.6961   24.7003   47.5420 C      0
   31.8181   25.4093   46.7200 C      0
   30.6070   24.8223   46.3560 C      0
   30.2891   23.5403   46.7940 C      0
   31.1561   22.8773   47.5760 N      0
   32.3301   23.4243   47.9560 C      0
   29.6570   25.5423   45.4800 C      0
   29.9720   26.7834   44.9270 C      0
   29.0339   27.3884   44.0940 C      0
   27.8539   26.7894   43.8499 N      0
   27.5659   25.5943   44.4220 C      0
   28.4650   24.9753   45.2170 N      0
   26.4039   24.9543   44.2020 N      0
   25.3469   25.5113   43.5609 C      0
   24.2988   26.0654   44.2950 C      0
   23.2068   26.6104   43.6289 C      0
   23.1488   26.6034   42.2339 C      0
   24.1948   26.0544   41.4959 C      0
   25.2829   25.4903   42.1659 C      0
   24.0608   26.0504   40.0979 N      0
   24.9818   25.6243   39.2388 C      0
   24.6518   25.6313   37.7798 C      0
   25.4429   24.8953   36.8968 C      0
   25.1349   24.8973   35.5398 C      0
   24.0398   25.6293   35.0818 C      0
   23.2418   26.3574   35.9618 C      0
   23.5528   26.3494   37.3188 C      0
   23.7078   25.6153   33.6107 C      0
   23.6118   26.9464   33.0277 N      0
   24.7778   27.8094   33.1877 C      0
   24.4067   29.2254   32.7697 C      0
   23.8577   29.1534   31.4227 N      0
   23.8296   30.4374   30.7297 C      0
   22.6957   28.3024   31.1917 C      0
   22.9657   26.9004   31.7187 C      0
   26.0669   25.2153   39.5919 O      0
   24.3248   26.0844   45.8070 C      0
   25.5906   27.4449   32.5614 H      0
   25.0935   27.8072   34.2299 H      0
   29.2567   28.3517   43.6375 H      0
   30.9246   27.2658   45.1405 H      0
   33.6449   25.1362   47.8515 H      0
   24.8432   30.8267   30.6456 H      0
   23.4085   30.3036   29.7344 H      0
   23.2164   31.1400   31.2919 H      0
   23.1901   26.4012   39.7119 H      0
   22.4912   28.2531   30.1232 H      0
   21.8331   28.7218   31.7073 H      0
   22.0213   26.3654   31.8067 H      0
   23.6158   26.3766   31.0194 H      0
   33.0022   22.8566   48.5978 H      0
   25.1938   26.6451   46.1481 H      0
   23.4179   26.5581   46.1797 H      0
   24.3815   25.0635   46.1819 H      0
   26.0884   25.0302   41.5955 H      0
   25.7458   24.3302   34.8390 H      0
   32.0756   26.4072   46.3680 H      0
   22.2856   27.0272   41.7228 H      0
   26.2935   24.3246   37.2663 H      0
   22.3877   26.9240   35.5937 H      0
   22.9344   26.9064   38.0211 H      0
   25.2920   29.8595   32.7772 H      0
   23.6630   29.6322   33.4533 H      0
   26.3129   23.9998   44.5347 H      0
   29.3458   23.0791   46.5052 H      0
   22.7525   25.1100   33.4771 H      0
   24.4867   25.0639   33.0861 H      0
   22.3891   27.0467   44.2007 H      0
  1  2  4
  1  6  4
  2  3  4
  3  4  4
  3  7  1
  4  5  4
  5  6  4
  7  8  4
  7 12  4
  8  9  4
  9 10  4
 10 11  4
 11 12  4
 11 13  1
 13 14  1
 14 15  4
 14 19  4
 15 16  4
 15 37  1
 16 17  4
 17 18  4
 18 19  4
 18 20  1
 20 21  1
 21 22  1
 21 36  2
 22 23  4
 22 27  4
 23 24  4
 24 25  4
 25 26  4
 25 28  1
 26 27  4
 28 29  1
 29 30  1
 29 35  1
 30 31  1
 31 32  1
 32 33  1
 32 34  1
 34 35  1
 30 38  1
 30 39  1
  9 40  1
  8 41  1
  1 42  1
 33 43  1
 33 44  1
 33 45  1
 20 46  1
 34 47  1
 34 48  1
 35 49  1
 35 50  1
  6 51  1
 37 52  1
 37 53  1
 37 54  1
 19 55  1
 24 56  1
  2 57  1
 17 58  1
 23 59  1
 26 60  1
 27 61  1
 31 62  1
 31 63  1
 13 64  1
  4 65  1
 28 66  1
 28 67  1
 16 68  1
M  END
$$$$
