@<TRIPOS>MOLECULE
C:LAG501
     5     4     1     0     0
SMALL
NO_CHARGES
****
Generated from the CSD

@<TRIPOS>ATOM
     1 CD6     17.2280  11.2210  37.0500   C.3       1 LAG501   0.0000
     2 H1      18.3170  11.2210  37.0500   H         1 LAG501   0.0000
     3 H2      16.8650  12.1102  36.5366   H         1 LAG501   0.0000
     4 H3      16.8650  10.3318  36.5366   H         1 LAG501   0.0000
     5 H4      16.8650  11.2210  38.0767   H         1 LAG501   0.0000
@<TRIPOS>BOND
     1     1     2    1
     2     1     3    1
     3     1     4    1
     4     1     5    1
@<TRIPOS>SUBSTRUCTURE
     1 LAG501      1 GROUP             0 C     LAG     0  
