A:ADP1160
  --CCDC--012419    3D                              

 39 41  0  0  0  0  0  0  0  0999 V2000
   -8.7699   96.8737   16.0662 P      0
   -8.8349   97.6736   14.8162 O      5
   -7.6869   95.8737   16.2282 O      5
   -8.6759   97.8926   17.2882 O      5
  -11.5708   96.8247   16.1872 P      0
  -11.3608   98.2276   15.7412 O      5
  -12.4888   95.9417   15.4212 O      5
  -10.1509   96.0937   16.2012 O      0
  -12.0918   96.8787   17.6912 O      0
  -11.8228   98.0026   18.5152 C      0
  -11.4428   97.5506   19.9023 C      0
  -12.5528   96.8167   20.4793 O      0
  -10.2839   96.5707   19.9823 C      0
   -9.0359   97.2537   19.9423 O      0
  -10.5269   95.9057   21.3333 C      0
  -10.0699   96.6757   22.4273 O      0
  -12.0558   95.8227   21.3613 C      0
  -12.5488   94.5167   20.9233 N      0
  -12.6718   94.0327   19.6442 C      0
  -13.1188   92.8017   19.5872 N      0
  -13.3078   92.4537   20.9183 C      0
  -13.7668   91.2757   21.5333 C      0
  -14.1338   90.1807   20.8573 N      0
  -13.8398   91.2587   22.8843 N      0
  -13.4778   92.3577   23.5583 C      0
  -13.0328   93.5237   23.0933 N      0
  -12.9698   93.5037   21.7503 C      0
   -8.9768   97.8805   20.7102 H      0
  -12.7121   98.6287   18.5717 H      0
  -11.0022   98.5756   18.0859 H      0
  -13.5589   92.2881   24.6420 H      0
  -14.4573   89.3595   21.3585 H      0
  -14.0887   90.1714   19.8433 H      0
  -11.2244   98.4209   20.5194 H      0
  -10.3455   95.8384   19.1785 H      0
  -12.4111   96.0239   22.3708 H      0
  -10.0879   94.9093   21.3552 H      0
  -12.4215   94.6168   18.7599 H      0
  -10.5403   97.5501   22.4361 H      0
  1  2  4
  1  3  4
  1  4  4
  1  8  1
  5  6  4
  5  7  4
  5  8  1
  5  9  1
  9 10  1
 10 11  1
 11 12  1
 11 13  1
 12 17  1
 13 14  1
 13 15  1
 15 16  1
 15 17  1
 17 18  1
 18 19  1
 18 27  1
 19 20  2
 20 21  1
 21 22  4
 21 27  4
 22 23  1
 22 24  4
 24 25  4
 25 26  4
 26 27  4
 14 28  1
 10 29  1
 10 30  1
 25 31  1
 23 32  1
 23 33  1
 11 34  1
 13 35  1
 17 36  1
 15 37  1
 19 38  1
 16 39  1
M  CHG  5   2  -1   3  -1   4  -1   6  -1   7  -1
M  END
$$$$
