@<TRIPOS>MOLECULE
D:VIA1000
     5     4     1     0     0
SMALL
NO_CHARGES
****
Generated from the CSD

@<TRIPOS>ATOM
     1 C15      3.5390  72.0920  81.2850   C.3       1 VIA1000   0.0000
     2 H1       4.6280  72.0920  81.2850   H         1 VIA1000   0.0000
     3 H2       3.1760  72.9812  80.7716   H         1 VIA1000   0.0000
     4 H3       3.1760  71.2028  80.7716   H         1 VIA1000   0.0000
     5 H4       3.1760  72.0920  82.3117   H         1 VIA1000   0.0000
@<TRIPOS>BOND
     1     1     2    1
     2     1     3    1
     3     1     4    1
     4     1     5    1
@<TRIPOS>SUBSTRUCTURE
     1 VIA1000     1 GROUP             0 D     VIA     0  
