A:BEN701
  --CCDC--012419    3D                              

 18 18  0  0  0  0  0  0  0  0999 V2000
   79.0852   16.7416  -14.9211 C      0
   80.1653   17.3166  -15.5701 C      0
   79.9532   18.1297  -16.6721 C      0
   78.6532   18.3747  -17.1241 C      0
   77.5691   17.7997  -16.4701 C      0
   77.7932   16.9906  -15.3721 C      0
   79.2682   15.9376  -13.7911 C      0
   80.3293   15.2256  -13.5741 N      3
   78.3492   15.8776  -12.8701 N      0
   76.9471   16.5423  -14.8533 H      0
   78.4894   19.0161  -17.9887 H      0
   76.5544   17.9848  -16.8193 H      0
   80.8012   18.5787  -17.1871 H      0
   80.3993   14.6627  -12.7323 H      0
   81.0901   15.2308  -14.2458 H      0
   78.4876   15.2924  -12.0523 H      0
   77.4946   16.4160  -12.9700 H      0
   81.1779   17.1304  -15.2154 H      0
  1  2  4
  1  6  4
  1  7  1
  2  3  4
  3  4  4
  4  5  4
  5  6  4
  7  8  2
  7  9  1
  6 10  1
  4 11  1
  5 12  1
  3 13  1
  8 14  1
  8 15  1
  9 16  1
  9 17  1
  2 18  1
M  CHG  1   8   1
M  END
$$$$
