@<TRIPOS>MOLECULE
D:MRK501
     4     3     1     0     0
SMALL
NO_CHARGES
****
Generated from the CSD

@<TRIPOS>ATOM
     1 N23     40.3410  17.4110  64.9280   N.3       1 MRK501   0.0000
     2 H1      41.3560  17.4110  64.9280   H         1 MRK501   0.0000
     3 H2      40.0027  18.2397  64.4495   H         1 MRK501   0.0000
     4 H3      40.0027  16.5823  64.4495   H         1 MRK501   0.0000
@<TRIPOS>BOND
     1     1     2    1
     2     1     3    1
     3     1     4    1
@<TRIPOS>SUBSTRUCTURE
     1 MRK501      1 GROUP             0 D     MRK     0  
