A:SMD1003
  --CCDC--012419    3D                              

 48 49  0  0  0  0  0  0  0  0999 V2000
   -0.0040   -3.4490   -0.6700 O      0
    1.4250   -3.4720   -0.7620 C      0
    1.9150   -2.0550   -0.6930 C      0
    1.2670   -1.3420    0.3980 O      0
    3.4070   -1.9860   -0.4680 C      0
    4.0930   -2.5180   -1.6270 O      0
    3.7570   -2.6860    0.8380 C      0
    3.8430   -1.6440    1.9530 C      0
    4.0940   -2.2420    3.2060 O      0
    2.7790   -3.6500    1.2770 O      0
    1.9670   -4.3660    0.3140 C      0
    2.7590   -5.8030   -0.4960 S      0
    2.9179   -7.0770    0.7840 C      0
    3.9929   -8.0690    0.4110 C      0
    4.2089   -8.8930    1.5570 O      0
    5.3769   -9.7280    1.4660 C      0
    3.5919   -8.8311   -0.7200 O      0
    1.6109   -7.8440    1.0500 C      0
    0.5889   -6.8980    1.3390 O      0
    1.2249   -8.7561   -0.1260 C      0
    0.1579   -9.6461    0.2780 O      0
    2.3929   -9.6211   -0.5540 C      0
    2.0709  -10.2621   -1.8850 C      0
    3.0329  -11.2851   -2.1610 O      0
    3.2167   -6.5887    1.7104 H      0
   -0.6323   -9.1117    0.5537 H      0
    2.5663  -10.3955    0.1918 H      0
    1.6772   -1.5546   -1.6305 H      0
    4.9554   -2.7347    3.1710 H      0
    3.6820   -0.9370   -0.3691 H      0
    4.7227   -3.1782    0.7328 H      0
    2.1059   -9.5082   -2.6701 H      0
    1.0746  -10.7001   -1.8465 H      0
    3.8533   -1.9827   -2.4282 H      0
    0.8941   -8.1476   -0.9664 H      0
    2.9000   -1.1016    2.0031 H      0
    4.6499   -0.9489    1.7254 H      0
    0.4740   -6.2878    0.5641 H      0
    1.7559   -8.4678    1.9308 H      0
    1.1069   -4.7521    0.8592 H      0
    1.4715   -1.7955    1.2574 H      0
   -0.3758   -2.9199   -1.4236 H      0
    6.2613   -9.1036    1.3481 H      0
    5.4703  -10.3218    2.3741 H      0
    5.2833  -10.3907    0.6070 H      0
    1.7028   -3.8875   -1.7296 H      0
    4.9110   -7.5327    0.1758 H      0
    3.0007  -11.9718   -1.4444 H      0
  1  2  1
  2  3  1
  2 11  1
  3  4  1
  3  5  1
  5  6  1
  5  7  1
  7  8  1
  7 10  1
  8  9  1
 10 11  1
 11 12  1
 12 13  1
 13 14  1
 13 18  1
 14 15  1
 14 17  1
 15 16  1
 17 22  1
 18 19  1
 18 20  1
 20 21  1
 20 22  1
 22 23  1
 23 24  1
 13 25  1
 21 26  1
 22 27  1
  3 28  1
  9 29  1
  5 30  1
  7 31  1
 23 32  1
 23 33  1
  6 34  1
 20 35  1
  8 36  1
  8 37  1
 19 38  1
 18 39  1
 11 40  1
  4 41  1
  1 42  1
 16 43  1
 16 44  1
 16 45  1
  2 46  1
 14 47  1
 24 48  1
M  END
$$$$
