@<TRIPOS>MOLECULE
E:5RM1003
     5     4     1     0     0
SMALL
NO_CHARGES
****
Generated from the CSD

@<TRIPOS>ATOM
     1 C16     45.1150   1.4450 -14.5960   C.3       1 5RM1003   0.0000
     2 H1      46.2040   1.4450 -14.5960   H         1 5RM1003   0.0000
     3 H2      44.7520   2.3342 -15.1094   H         1 5RM1003   0.0000
     4 H3      44.7520   0.5558 -15.1094   H         1 5RM1003   0.0000
     5 H4      44.7520   1.4450 -13.5693   H         1 5RM1003   0.0000
@<TRIPOS>BOND
     1     1     2    1
     2     1     3    1
     3     1     4    1
     4     1     5    1
@<TRIPOS>SUBSTRUCTURE
     1 5RM1003     1 GROUP             0 E     5RM     0  
