@<TRIPOS>MOLECULE
C:915782
     5     4     1     0     0
SMALL
NO_CHARGES
****
Generated from the CSD

@<TRIPOS>ATOM
     1 C33     14.2100  16.7480  26.3050   C.3       1 915782   0.0000
     2 H1      15.2990  16.7480  26.3050   H         1 915782   0.0000
     3 H2      13.8470  17.6372  25.7916   H         1 915782   0.0000
     4 H3      13.8470  15.8588  25.7916   H         1 915782   0.0000
     5 H4      13.8470  16.7480  27.3317   H         1 915782   0.0000
@<TRIPOS>BOND
     1     1     2    1
     2     1     3    1
     3     1     4    1
     4     1     5    1
@<TRIPOS>SUBSTRUCTURE
     1 915782      1 GROUP             0 C     915     0  
