A:LIF301
  --CCDC--012419    3D                              

 58 62  0  0  0  0  0  0  0  0999 V2000
    4.6409   41.8498   18.2978 F      0
    4.9499   42.2668   17.0999 C      0
    5.3159   43.5088   17.1919 F      0
    5.9439   41.5708   16.6619 F      0
    3.7679   42.1308   16.1739 C      0
    3.4300   40.8838   15.6469 C      0
    3.0150   43.2488   15.8689 C      0
    1.8980   43.1388   15.0299 C      0
    1.5660   41.8978   14.5169 C      0
    0.4930   41.7778   13.7129 F      0
    2.2980   40.7568   14.7989 C      0
    1.8040   39.5658   14.3129 N      0
    2.0040   38.3427   14.8259 C      0
    2.6380   38.2027   15.8759 O      0
    1.4190   37.2827   14.1989 N      0
    1.3300   35.9907   14.6509 C      0
    2.0570   35.4307   15.6959 C      0
    1.8540   34.1147   16.0969 C      0
    0.9030   33.3076   15.4739 C      0
    0.1820   33.8447   14.4179 C      0
    0.3970   35.1497   14.0509 C      0
    0.7000   31.9516   16.0319 C      0
   -0.4420   31.4996   16.6069 C      0
   -1.8180   32.0876   16.7399 C      0
   -2.0930   33.4326   16.6939 C      0
   -3.4090   33.8817   16.8199 C      0
   -4.4259   32.9436   16.9899 C      0
   -4.1399   31.5906   17.0169 C      0
   -2.8380   31.1596   16.8949 C      0
   -5.7099   33.4026   17.1219 O      0
   -6.7839   32.5476   17.5239 C      0
   -0.2560   30.1626   17.1169 O      0
    0.9640   29.8566   16.8999 C      0
    1.5350   28.7016   17.2189 N      0
    1.6690   30.8606   16.2559 C      0
    3.0060   30.6786   15.9109 C      0
    3.7419   31.6126   15.2689 N      0
    3.5509   29.4976   16.2799 N      0
    2.8460   28.5396   16.9039 C      0
    4.0334   40.0092   15.8855 H      0
   -4.9445   30.8662   17.1346 H      0
    1.0012   37.4714   13.2933 H      0
   -0.2021   35.5540   13.2363 H      0
   -2.6097   30.0951   16.9199 H      0
    2.4489   33.7068   16.9127 H      0
   -1.2841   34.1492   16.5590 H      0
   -6.5709   32.1361   18.5093 H      0
   -7.7092   33.1206   17.5620 H      0
   -6.8892   31.7353   16.8063 H      0
    1.2281   39.6197   13.4788 H      0
   -3.6369   34.9460   16.7859 H      0
    3.2905   44.2181   16.2818 H      0
    4.7135   31.4255   15.0422 H      0
    3.3232   32.5012   15.0134 H      0
    1.3009   44.0162   14.7857 H      0
    2.8013   36.0358   16.2113 H      0
    3.3404   27.6051   17.1649 H      0
   -0.5477   33.2368   13.8850 H      0
  1  2  1
  2  3  1
  2  4  1
  2  5  1
  5  6  4
  5  7  4
  6 11  4
  7  8  4
  8  9  4
  9 10  1
  9 11  4
 11 12  1
 12 13  1
 13 14  2
 13 15  1
 15 16  1
 16 17  4
 16 21  4
 17 18  4
 18 19  4
 19 20  4
 19 22  1
 20 21  4
 22 23  2
 22 35  1
 23 24  1
 23 32  1
 24 25  4
 24 29  4
 25 26  4
 26 27  4
 27 28  4
 27 30  1
 28 29  4
 30 31  1
 32 33  1
 33 34  4
 33 35  4
 34 39  4
 35 36  4
 36 37  1
 36 38  4
 38 39  4
  6 40  1
 28 41  1
 15 42  1
 21 43  1
 29 44  1
 18 45  1
 25 46  1
 31 47  1
 31 48  1
 31 49  1
 12 50  1
 26 51  1
  7 52  1
 37 53  1
 37 54  1
  8 55  1
 17 56  1
 39 57  1
 20 58  1
M  END
$$$$
