@<TRIPOS>MOLECULE
B:LIF301
     5     4     1     0     0
SMALL
NO_CHARGES
****
Generated from the CSD

@<TRIPOS>ATOM
     1 C27      2.8460  28.5390  16.9040   C.3       1 LIF301   0.0000
     2 H1       3.9350  28.5390  16.9040   H         1 LIF301   0.0000
     3 H2       2.4830  29.4282  16.3906   H         1 LIF301   0.0000
     4 H3       2.4830  27.6498  16.3906   H         1 LIF301   0.0000
     5 H4       2.4830  28.5390  17.9307   H         1 LIF301   0.0000
@<TRIPOS>BOND
     1     1     2    1
     2     1     3    1
     3     1     4    1
     4     1     5    1
@<TRIPOS>SUBSTRUCTURE
     1 LIF301      1 GROUP             0 B     LIF     0  
