@<TRIPOS>MOLECULE
B:LI9361
     5     4     1     0     0
SMALL
NO_CHARGES
****
Generated from the CSD

@<TRIPOS>ATOM
     1 C36      0.8460  -0.9520  26.2220   C.3       1 LI9361   0.0000
     2 H1       1.9350  -0.9520  26.2220   H         1 LI9361   0.0000
     3 H2       0.4830  -0.0628  25.7086   H         1 LI9361   0.0000
     4 H3       0.4830  -1.8412  25.7086   H         1 LI9361   0.0000
     5 H4       0.4830  -0.9520  27.2487   H         1 LI9361   0.0000
@<TRIPOS>BOND
     1     1     2    1
     2     1     3    1
     3     1     4    1
     4     1     5    1
@<TRIPOS>SUBSTRUCTURE
     1 LI9361      1 GROUP             0 B     LI9     0  
