A:LI9361
  --CCDC--012419    3D                              

 65 69  0  0  0  0  0  0  0  0999 V2000
    5.4489   -0.5080   18.6244 C      0
    4.5649   -0.8100   16.0063 C      0
    4.1819   -1.0730   18.3824 C      0
    6.2848   -0.0910   17.5864 C      0
    5.8099   -0.2570   16.2893 C      0
    3.7369   -1.2240   17.0603 C      0
    3.3809   -1.4790   19.5434 C      0
    6.5988    0.1370   15.2953 F      0
    2.1749   -2.9889   20.8494 N      0
    1.4800   -4.1589   21.3754 C      0
    1.5760   -1.6340   22.7785 C      0
    2.9079   -0.8680   20.6514 C      0
    3.0749    0.5310   21.0584 C      0
    3.0969   -3.8029   18.8774 O      0
    2.8949   -2.9019   19.6674 C      0
    2.1779   -1.7310   21.4664 N      0
   -0.5900   -5.5719   21.2134 C      0
    1.5360   -6.6778   21.4964 C      0
    2.3149   -5.4199   21.1324 C      0
    0.0810   -4.2769   20.7604 C      0
    0.2420   -6.7068   20.8164 N      3
    3.2279    0.8200   22.3595 N      0
    3.2289    2.8089   20.5144 C      0
    3.5369    2.4649   23.9895 N      0
    3.0689    1.5140   20.0854 C      0
    3.3779    2.1049   22.6895 C      0
    3.3839    3.1139   21.8134 N      0
    3.4449    1.5650   25.0995 C      0
    2.1049    0.8860   25.2925 C      0
    3.7959    2.3059   26.4055 C      0
   -0.3270   -0.4290   25.6955 C      0
    2.0630   -0.3090   26.0295 C      0
    0.9180    1.4030   24.7675 C      0
   -0.2990    0.7500   24.9655 C      0
    0.8460   -0.9520   26.2225 C      0
    1.3732   -6.6971   22.5730 H      0
    2.1135   -7.5525   21.2009 H      0
    2.9772   -0.7286   26.4467 H      0
    3.2160   -5.3717   21.7420 H      0
    2.5907   -5.4654   20.0799 H      0
    3.7349    3.4404   24.1881 H      0
    0.1648   -4.2765   19.6746 H      0
   -0.5237   -3.4288   21.0781 H      0
    0.3942   -6.6709   19.8135 H      0
   -0.2381   -7.5687   21.0551 H      0
    3.2302    3.6125   19.7794 H      0
    2.9435    1.2730   19.0308 H      0
   -1.5701   -5.6573   20.7465 H      0
   -0.7033   -5.5642   22.2965 H      0
    3.1004    3.1308   26.5530 H      0
    3.7239    1.6159   27.2450 H      0
    4.8112    2.6943   26.3409 H      0
    4.1908    0.7851   24.9533 H      0
    1.3669   -4.0301   22.4509 H      0
    4.2356   -0.9206   14.9742 H      0
    0.8122   -1.8780   26.7946 H      0
    0.9430    2.3292   24.1953 H      0
    2.0986   -2.2958   23.4675 H      0
    1.6479   -0.6078   23.1359 H      0
    0.5283   -1.9253   22.7196 H      0
   -1.2179    1.1620   24.5509 H      0
    5.7873   -0.3926   19.6530 H      0
   -1.2720   -0.9460   25.8558 H      0
    2.7595   -1.6578   16.8547 H      0
    7.2636    0.3441   17.7831 H      0
  1  3  4
  1  4  4
  2  5  4
  2  6  4
  3  6  4
  3  7  1
  4  5  4
  5  8  1
  7 12  2
  7 15  1
  9 10  1
  9 15  1
  9 16  1
 10 19  1
 10 20  1
 11 16  1
 12 13  1
 12 16  1
 13 22  4
 13 25  4
 14 15  2
 17 20  1
 17 21  1
 18 19  1
 18 21  1
 22 26  4
 23 25  4
 23 27  4
 24 26  1
 24 28  1
 26 27  4
 28 29  1
 28 30  1
 29 32  4
 29 33  4
 31 34  4
 31 35  4
 32 35  4
 33 34  4
 18 36  1
 18 37  1
 32 38  1
 19 39  1
 19 40  1
 24 41  1
 20 42  1
 20 43  1
 21 44  1
 21 45  1
 23 46  1
 25 47  1
 17 48  1
 17 49  1
 30 50  1
 30 51  1
 30 52  1
 28 53  1
 10 54  1
  2 55  1
 35 56  1
 33 57  1
 11 58  1
 11 59  1
 11 60  1
 34 61  1
  1 62  1
 31 63  1
  6 64  1
  4 65  1
M  CHG  1  21   1
M  END
$$$$
