@<TRIPOS>MOLECULE
B:PFP1277
     5     4     1     0     0
SMALL
NO_CHARGES
****
Generated from the CSD

@<TRIPOS>ATOM
     1 CAI     20.0290  -3.4400   9.3210   C.3       1 PFP1277   0.0000
     2 H1      21.1180  -3.4400   9.3210   H         1 PFP1277   0.0000
     3 H2      19.6660  -2.5508   8.8076   H         1 PFP1277   0.0000
     4 H3      19.6660  -4.3292   8.8076   H         1 PFP1277   0.0000
     5 H4      19.6660  -3.4400  10.3477   H         1 PFP1277   0.0000
@<TRIPOS>BOND
     1     1     2    1
     2     1     3    1
     3     1     4    1
     4     1     5    1
@<TRIPOS>SUBSTRUCTURE
     1 PFP1277     1 GROUP             0 B     PFP     0  
