A:PFP1277
  --CCDC--012419    3D                              

 50 53  0  0  0  0  0  0  0  0999 V2000
   18.9619   -8.0068   12.9177 C      0
   17.6309   -7.6668   12.5677 O      0
   17.6079   -6.4088   11.9277 C      0
   18.3939   -5.3378   12.4247 C      0
   18.3209   -4.0439   11.7947 C      0
   16.7449   -6.1958   10.8438 C      0
   16.6769   -4.9249   10.2198 C      0
   17.4809   -3.8549   10.6778 C      0
   17.3309   -2.4949   10.0538 C      0
   16.1969   -1.8059    9.9288 C      0
   14.9219   -1.9559   10.4668 C      0
   14.6189   -3.0079   11.2117 N      0
   13.2029   -3.2549   11.6007 C      0
   12.5240   -2.3809   12.7307 C      0
   12.1040   -0.9840   12.4447 O      0
   13.9849   -1.0330   10.2088 N      0
   14.2789    0.0380    9.4698 C      0
   15.5229    0.2070    8.9638 N      0
   16.4789   -0.7010    9.1888 C      0
   17.7139   -0.7390    8.8378 O      0
   18.2669   -1.8179    9.2738 C      0
   19.5819   -2.1569    9.0698 C      0
   20.4509   -1.2110    8.5098 C      0
   21.7698   -1.5370    8.2648 C      0
   22.2318   -2.8039    8.5438 C      0
   23.5288   -3.1179    8.2998 O      0
   24.5288   -2.0489    8.1768 C      0
   21.3609   -3.7669    9.0798 C      0
   20.0289   -3.4399    9.3208 C      0
   21.7266   -4.7673    9.3064 H      0
   11.4364   -0.9830   11.7096 H      0
   19.3423   -4.1925    9.7056 H      0
   18.9124   -3.2146   12.1799 H      0
   19.0504   -5.4929   13.2796 H      0
   16.1229   -7.0118   10.4788 H      0
   24.5646   -1.4770    9.1029 H      0
   25.5067   -2.4872    7.9828 H      0
   24.2565   -1.3901    7.3536 H      0
   19.3634   -7.2530   13.5934 H      0
   18.9709   -8.9778   13.4106 H      0
   19.5739   -8.0506   12.0180 H      0
   20.0843   -0.2147    8.2669 H      0
   13.5104    0.7837    9.2716 H      0
   13.2315   -2.3325   13.5571 H      0
   11.6313   -2.9178   13.0482 H      0
   13.1444   -4.2917   11.9288 H      0
   12.6035   -3.1244   10.7010 H      0
   15.3492   -3.6436   11.5165 H      0
   16.0000   -4.7708    9.3807 H      0
   22.4461   -0.7909    7.8502 H      0
  1  2  1
  2  3  1
  3  4  4
  3  6  4
  4  5  4
  5  8  4
  6  7  4
  7  8  4
  8  9  1
  9 10  1
  9 21  2
 10 11  4
 10 19  4
 11 12  1
 11 16  4
 12 13  1
 13 14  1
 14 15  1
 16 17  4
 17 18  4
 18 19  4
 19 20  1
 20 21  1
 21 22  1
 22 23  4
 22 29  4
 23 24  4
 24 25  4
 25 26  1
 25 28  4
 26 27  1
 28 29  4
 28 30  1
 15 31  1
 29 32  1
  5 33  1
  4 34  1
  6 35  1
 27 36  1
 27 37  1
 27 38  1
  1 39  1
  1 40  1
  1 41  1
 23 42  1
 17 43  1
 14 44  1
 14 45  1
 13 46  1
 13 47  1
 12 48  1
  7 49  1
 24 50  1
M  END
$$$$
