@<TRIPOS>MOLECULE
D:MLG601
     5     4     1     0     0
SMALL
NO_CHARGES
****
Generated from the CSD

@<TRIPOS>ATOM
     1 C16     26.6290   3.6590   5.3750   C.3       1 MLG601   0.0000
     2 H1      27.7180   3.6590   5.3750   H         1 MLG601   0.0000
     3 H2      26.2660   4.5482   4.8616   H         1 MLG601   0.0000
     4 H3      26.2660   2.7698   4.8616   H         1 MLG601   0.0000
     5 H4      26.2660   3.6590   6.4017   H         1 MLG601   0.0000
@<TRIPOS>BOND
     1     1     2    1
     2     1     3    1
     3     1     4    1
     4     1     5    1
@<TRIPOS>SUBSTRUCTURE
     1 MLG601      1 GROUP             0 D     MLG     0  
