D:MLG601
  --CCDC--110118    3D                              

 34 34  0  0  0  0  0  0  0  0999 V2000
   18.0310    1.6160    6.7860 C      0
   16.6780    1.5860    6.4370 C      0
   16.2210    2.2800    5.3200 C      0
   14.5860    2.2870    4.8410 Cl     0
   17.1110    2.9950    4.5560 C      0
   18.4390    3.0070    4.9120 C      0
   19.4640    3.8980    3.9310 Cl     0
   18.9400    2.3380    6.0080 C      0
   20.2960    2.3860    6.3000 O      0
   22.3020    1.4350    7.4530 C      0
   20.8040    1.3450    7.1730 C      0
   23.0600    0.6010    6.4130 C      0
   23.5680    1.5260    5.4070 N      0
   22.8160    1.8210    4.1930 C      0
   24.7420    2.1400    5.7060 C      0
   25.3550    3.0750    4.8040 C      0
   26.6290    3.6590    5.3750 C      0
   25.2309    1.9179    6.6534 H      0
   15.9760    1.0155    7.0433 H      0
   22.3876   -0.1204    5.9511 H      0
   23.8869    0.0745    6.8874 H      0
   21.8510    2.2499    4.4590 H      0
   23.3735    2.5312    3.5842 H      0
   22.6619    0.9022    3.6292 H      0
   16.7694    3.5448    3.6803 H      0
   18.3775    1.0758    7.6658 H      0
   22.5100    1.0502    8.4503 H      0
   22.6225    2.4739    7.3906 H      0
   20.6013    0.3812    6.7083 H      0
   20.2752    1.4084    8.1229 H      0
   24.9511    3.3328    3.8261 H      0
   27.3401    2.8576    5.5701 H      0
   27.0589    4.3600    4.6610 H      0
   26.4048    4.1797    6.3048 H      0
  1  2  4
  1  8  4
  2  3  4
  3  4  1
  3  5  4
  5  6  4
  6  7  1
  6  8  4
  8  9  1
  9 11  1
 10 11  1
 10 12  1
 12 13  1
 13 14  1
 13 15  1
 15 16  2
 16 17  1
 15 18  1
  2 19  1
 12 20  1
 12 21  1
 14 22  1
 14 23  1
 14 24  1
  5 25  1
  1 26  1
 10 27  1
 10 28  1
 11 29  1
 11 30  1
 16 31  1
 17 32  1
 17 33  1
 17 34  1
M  END
$$$$
