X:STU902
  --CCDC--012419    3D                              

 62 69  0  0  0  0  0  0  0  0999 V2000
  -15.0106   20.1616  -13.9362 O      0
  -14.8406   18.9336  -14.6713 C      0
  -15.7376   18.7986  -15.9244 C      0
  -16.4476   20.0916  -16.1974 C      0
  -17.2786   20.3416  -14.9433 C      0
  -16.3156   20.6846  -13.7272 C      0
  -16.0516   22.1956  -13.5452 C      0
  -16.9386   20.2486  -12.4471 N      0
  -16.7446   18.9486  -12.1141 C      0
  -15.9186   17.9006  -12.6551 C      0
  -15.8726   16.6267  -11.9861 C      0
  -16.6136   16.3477  -10.7929 C      0
  -17.4356   17.3697  -10.2589 C      0
  -17.4606   18.6366  -10.9250 C      0
  -18.2556   19.7836  -10.5939 C      0
  -17.8196   20.7396  -11.5380 C      0
  -18.4205   21.9956  -11.5180 C      0
  -19.3905   22.3396  -10.5469 C      0
  -19.7645   21.3876   -9.5738 C      0
  -19.1995   20.0676   -9.5858 C      0
  -18.1116   16.7777   -9.0448 C      0
  -17.5466   15.3947   -9.0428 N      0
  -16.6506   15.1547  -10.0529 C      0
  -16.0096   14.1077  -10.2179 O      0
  -14.9996   15.7687  -12.7181 C      0
  -14.5646   16.6057  -13.8012 C      0
  -13.6727   16.0907  -14.7733 C      0
  -13.2367   14.7327  -14.6393 C      0
  -13.6647   13.9257  -13.5592 C      0
  -14.5646   14.4397  -12.5751 C      0
  -15.1076   17.8506  -13.7362 N      0
  -18.0386   19.1516  -14.7243 O      0
  -19.4145   19.3846  -14.3493 C      0
  -17.2796   19.9266  -17.4045 N      3
  -17.8556   21.2246  -17.8756 C      0
  -15.7276   20.8959  -16.3410 H      0
  -19.1947   16.7660   -9.1572 H      0
  -17.8466   17.3182   -8.1373 H      0
  -17.0478   21.9152  -18.1133 H      0
  -18.4594   21.0522  -18.7653 H      0
  -18.4787   21.6512  -17.0910 H      0
  -13.8005   18.8648  -14.9863 H      0
  -16.4731   18.0132  -15.7569 H      0
  -15.1193   18.5399  -16.7827 H      0
  -19.4873   19.3191   -8.8491 H      0
  -18.0404   19.2891  -17.1925 H      0
  -16.7067   19.5352  -18.1454 H      0
  -17.9551   21.1771  -15.1171 H      0
  -19.9165   19.9420  -15.1387 H      0
  -19.9175   18.4299  -14.2028 H      0
  -19.4465   19.9575  -13.4237 H      0
  -15.5781   22.5920  -14.4422 H      0
  -16.9956   22.7111  -13.3750 H      0
  -15.3949   22.3489  -12.6901 H      0
  -17.8033   14.6944   -8.3544 H      0
  -18.1369   22.7317  -12.2687 H      0
  -14.9017   13.8231  -11.7432 H      0
  -13.3277   16.7100  -15.5999 H      0
  -12.5620   14.3131  -15.3841 H      0
  -20.4887   21.6570   -8.8065 H      0
  -13.3044   12.9014  -13.4766 H      0
  -19.8443   23.3295  -10.5502 H      0
  1  2  1
  1  6  1
  2  3  1
  2 31  1
  3  4  1
  4  5  1
  4 34  1
  5  6  1
  5 32  1
  6  7  1
  6  8  1
  8  9  1
  8 16  1
  9 10  4
  9 14  4
 10 11  4
 10 31  1
 11 12  4
 11 25  1
 12 13  4
 12 23  1
 13 14  4
 13 21  1
 14 15  1
 15 16  4
 15 20  4
 16 17  4
 17 18  4
 18 19  4
 19 20  4
 21 22  1
 22 23  1
 23 24  2
 25 26  4
 25 30  4
 26 27  4
 26 31  1
 27 28  4
 28 29  4
 29 30  4
 32 33  1
 34 35  1
  4 36  1
 21 37  1
 21 38  1
 35 39  1
 35 40  1
 35 41  1
  2 42  1
  3 43  1
  3 44  1
 20 45  1
 34 46  1
 34 47  1
  5 48  1
 33 49  1
 33 50  1
 33 51  1
  7 52  1
  7 53  1
  7 54  1
 22 55  1
 17 56  1
 30 57  1
 27 58  1
 28 59  1
 19 60  1
 29 61  1
 18 62  1
M  CHG  1  34   1
M  END
$$$$
