A:215102
  --CCDC--012419    3D                              

 61 65  0  0  0  0  0  0  0  0999 V2000
  -40.2146   28.1857   -1.2221 C      0
  -40.0396   30.3737   -1.0661 C      0
  -40.3946   31.8587   -1.0181 C      0
  -41.7366   32.3097   -0.9811 C      0
  -41.1556   37.0117    0.2430 C      0
  -41.9046   22.3798   -0.0430 C      0
  -42.5876   22.9608   -1.2681 C      0
  -44.0516   22.6688   -3.0792 O      0
  -43.3996   22.2458   -1.9311 N      0
  -40.9446   23.4728    0.4440 C      0
  -41.1916   24.6408   -0.5050 C      0
  -40.5806   25.8898   -0.4460 C      0
  -42.1256   24.3708   -1.4791 C      0
  -42.4826   25.3528   -2.4222 C      0
  -41.8506   26.6168   -2.3632 C      0
  -40.8806   26.8678   -1.3891 C      0
  -38.8776   28.4467   -0.9091 C      0
  -37.7207   27.4728   -0.6630 C      0
  -37.7667   26.1148   -1.0171 C      0
  -36.7037   25.2788   -0.7271 C      0
  -35.6287   25.7378   -0.0900 N      0
  -35.5427   27.0088    0.2830 C      0
  -36.5817   27.8977    0.0210 C      0
  -40.8826   29.3547   -1.3001 N      0
  -38.8256   29.7947   -0.8211 N      0
  -42.0976   33.6847   -0.9091 C      0
  -41.0946   34.6627   -0.8071 C      0
  -39.7556   34.1977   -0.8301 C      0
  -39.4036   32.8327   -0.9161 C      0
  -41.3976   36.0267   -0.7641 O      0
  -42.3796   37.8997    0.0650 C      0
  -43.6486   37.3557    0.6590 N      0
  -44.5756   36.5607   -0.2100 C      0
  -43.3546   36.6257    1.9161 C      0
  -42.1199   27.3941   -3.0767 H      0
  -38.6450   25.7172   -1.5233 H      0
  -37.9836   30.3161   -0.5990 H      0
  -43.1464   33.9770   -0.9330 H      0
  -40.2323   37.5582    0.0568 H      0
  -41.1214   36.5694    1.2376 H      0
  -38.9544   34.9335   -0.7786 H      0
  -41.3536   21.4779   -0.3056 H      0
  -42.6380   22.1458    0.7272 H      0
  -44.0541   35.6834   -0.5898 H      0
  -45.4392   36.2452    0.3736 H      0
  -44.9071   37.1758   -1.0453 H      0
  -43.2322   25.1431   -3.1838 H      0
  -36.7466   24.2318   -1.0236 H      0
  -36.5046   28.9322    0.3524 H      0
  -42.5326   31.5670   -1.0091 H      0
  -42.8896   37.3043    2.6297 H      0
  -44.2815   36.2372    2.3356 H      0
  -42.6769   35.7995    1.7062 H      0
  -34.6504   27.3597    0.7993 H      0
  -39.8624   26.1032    0.3442 H      0
  -39.9112   23.1353    0.3798 H      0
  -41.1710   23.7556    1.4710 H      0
  -42.5405   38.0438   -1.0024 H      0
  -42.1715   38.8603    0.5337 H      0
  -43.3812   22.9071   -3.7719 H      0
  -38.3546   32.5406   -0.9026 H      0
  1 16  1
  1 17  2
  1 24  1
  2  3  1
  2 24  2
  2 25  1
  3  4  4
  3 29  4
  4 26  4
  5 30  1
  5 31  1
  6  7  1
  6 10  1
  7  9  2
  7 13  1
  8  9  1
 10 11  1
 11 12  4
 11 13  4
 12 16  4
 13 14  4
 14 15  4
 15 16  4
 17 18  1
 17 25  1
 18 19  4
 18 23  4
 19 20  4
 20 21  4
 21 22  4
 22 23  4
 26 27  4
 27 28  4
 27 30  1
 28 29  4
 31 32  1
 32 33  1
 32 34  1
 15 35  1
 19 36  1
 25 37  1
 26 38  1
  5 39  1
  5 40  1
 28 41  1
  6 42  1
  6 43  1
 33 44  1
 33 45  1
 33 46  1
 14 47  1
 20 48  1
 23 49  1
  4 50  1
 34 51  1
 34 52  1
 34 53  1
 22 54  1
 12 55  1
 10 56  1
 10 57  1
 31 58  1
 31 59  1
  8 60  1
 29 61  1
M  END
$$$$
