A:7IG334
  --CCDC--012419    3D                              

 45 47  0  0  0  0  0  0  0  0999 V2000
   27.6260  106.0632  130.2132 C      0
   28.1670  106.6392  131.3252 N      0
   27.8690  107.9352  131.5212 C      0
   27.1000  108.6552  130.7042 N      0
   26.5520  108.1002  129.5932 C      0
   26.7840  106.7442  129.2822 C      0
   27.9410  104.7512  130.0342 N      0
   28.3560  108.5672  132.5892 N      0
   25.7100  109.0692  128.8002 C      0
   24.2370  109.0792  129.2142 C      0
   24.2590  104.4612  127.6562 C      0
   24.9920  105.2282  128.5602 C      0
   26.1200  105.9742  128.1742 C      0
   26.5060  105.9332  126.8082 C      0
   25.7580  105.1482  125.8702 C      0
   24.6210  104.3972  126.2832 C      0
   23.9150  103.6312  125.3642 N      0
   24.5380   99.7312  127.2012 C      0
   24.2810  101.0342  126.7402 C      0
   23.0160  101.3712  126.1562 C      0
   22.0350  100.3552  126.0602 C      0
   22.3190   99.0522  126.5322 C      0
   23.5680   98.7102  127.1092 C      0
   25.7480   99.4702  127.7422 F      0
   22.7180  102.7842  125.6462 C      0
   21.3760   98.1122  126.4272 F      0
   23.3939  103.9012  128.0080 H      0
   25.0529  101.7973  126.8279 H      0
   28.1356  109.5458  132.7442 H      0
   28.9473  108.0698  133.2474 H      0
   26.0643  105.1260  124.8254 H      0
   25.7703  108.7967  127.7476 H      0
   26.1140  110.0709  128.9396 H      0
   24.1567  109.3605  130.2632 H      0
   23.6930  109.7978  128.6030 H      0
   23.8130  108.0864  129.0712 H      0
   23.7706   97.7016  127.4666 H      0
   27.5791  104.2474  129.2308 H      0
   28.5379  104.2766  130.7041 H      0
   21.0624  100.5765  125.6233 H      0
   27.3731  106.4999  126.4720 H      0
   24.2460  103.6490  124.4049 H      0
   22.1457  102.6944  124.7241 H      0
   22.1169  103.2926  126.3985 H      0
   24.6799  105.2506  129.6033 H      0
  1  2  4
  1  6  4
  1  7  1
  2  3  4
  3  4  4
  3  8  1
  4  5  4
  5  6  4
  5  9  1
  6 13  1
  9 10  1
 11 12  4
 11 16  4
 12 13  4
 13 14  4
 14 15  4
 15 16  4
 16 17  1
 17 25  1
 18 19  4
 18 23  4
 18 24  1
 19 20  4
 20 21  4
 20 25  1
 21 22  4
 22 23  4
 22 26  1
 11 27  1
 19 28  1
  8 29  1
  8 30  1
 15 31  1
  9 32  1
  9 33  1
 10 34  1
 10 35  1
 10 36  1
 23 37  1
  7 38  1
  7 39  1
 21 40  1
 14 41  1
 17 42  1
 25 43  1
 25 44  1
 12 45  1
M  END
$$$$
