@<TRIPOS>MOLECULE
N:ELI958
     5     4     1     0     0
SMALL
NO_CHARGES
****
Generated from the CSD

@<TRIPOS>ATOM
     1 C43    100.3880  21.8710  99.2050   C.3       1 ELI958   0.0000
     2 H1     101.4770  21.8710  99.2050   H         1 ELI958   0.0000
     3 H2     100.0250  22.7602  98.6916   H         1 ELI958   0.0000
     4 H3     100.0250  20.9818  98.6916   H         1 ELI958   0.0000
     5 H4     100.0250  21.8710 100.2317   H         1 ELI958   0.0000
@<TRIPOS>BOND
     1     1     2    1
     2     1     3    1
     3     1     4    1
     4     1     5    1
@<TRIPOS>SUBSTRUCTURE
     1 ELI958      1 GROUP             0 N     ELI     0  
