@<TRIPOS>MOLECULE
H:HYA970
     4     3     1     0     0
SMALL
NO_CHARGES
****
Generated from the CSD

@<TRIPOS>ATOM
     1 N      -16.2610   4.9450 -33.1730   N.3       1 HYA970   0.0000
     2 H1     -15.2460   4.9450 -33.1730   H         1 HYA970   0.0000
     3 H2     -16.5993   5.7737 -33.6515   H         1 HYA970   0.0000
     4 H3     -16.5993   4.1163 -33.6515   H         1 HYA970   0.0000
@<TRIPOS>BOND
     1     1     2    1
     2     1     3    1
     3     1     4    1
@<TRIPOS>SUBSTRUCTURE
     1 HYA970      1 GROUP             0 H     HYA     0  
