B:HYA970
  --CCDC--012419    3D                              

 19 18  0  0  0  0  0  0  0  0999 V2000
   16.2183   -5.4270  -34.4368 C      0
   17.4513   -5.9561  -35.1908 C      0
   17.3203   -5.8361  -36.7178 C      0
   18.6242   -5.7851  -37.5038 C      0
   16.2603   -4.9450  -33.1728 N      0
   15.0304   -5.5340  -35.0768 O      0
   17.7593   -7.2891  -34.7948 O      0
   16.5043   -6.8441  -37.2398 O      0
   19.2552   -4.5760  -37.1898 O      0
   15.1404   -4.2980  -32.6438 O      0
   14.3681   -4.9222  -32.6411 H      0
   19.4358   -4.5406  -36.2140 H      0
   15.5981   -6.7770  -36.8393 H      0
   16.9867   -7.8803  -34.9938 H      0
   17.0999   -5.0528  -32.6127 H      0
   18.4170   -5.8303  -38.5719 H      0
   19.2617   -6.6218  -37.2219 H      0
   16.8078   -4.8946  -36.9099 H      0
   18.2949   -5.3343  -34.8950 H      0
  1  2  1
  1  5  1
  1  6  2
  2  3  1
  2  7  1
  3  4  1
  3  8  1
  4  9  1
  5 10  1
 10 11  1
  9 12  1
  8 13  1
  7 14  1
  5 15  1
  4 16  1
  4 17  1
  3 18  1
  2 19  1
M  END
$$$$
