A:TSN801
  --CCDC--012419    3D                              

 44 44  0  0  0  0  0  0  0  0999 V2000
   39.4008  -10.1712   10.8315 O      0
   40.9548   -7.9952   11.0375 O      0
   42.9009   -1.1280   13.8567 O      0
   39.1579   -9.1092   11.7376 N      0
   38.1779    2.9081   11.7026 N      0
   40.7659   -0.1700   13.4447 C      0
   41.3339    0.9620   12.6996 C      0
   40.5039    1.9590   12.1366 C      0
   39.0499    1.8920   12.2856 C      0
   38.4869    0.7660   13.0396 C      0
   39.3150   -0.2350   13.6007 C      0
   41.6789   -1.2330   14.0207 C      0
   41.1270   -2.4541   14.7967 C      0
   41.1469   -3.6981   13.8887 C      0
   40.2339   -4.7251   13.8807 C      0
   40.4829   -5.8341   12.9046 C      0
   39.6879   -6.9522   12.7686 C      0
   39.9808   -8.0402   11.7906 C      0
   41.9920   -2.7381   16.0418 C      0
   39.0270   -4.7511   14.8267 C      0
   38.7258    4.0531   10.9295 C      0
   36.6959    2.8411   11.8536 C      0
   38.4062   -3.8745   14.6474 H      0
   38.4433   -5.6525   14.6458 H      0
   39.3745   -4.7448   15.8588 H      0
   39.2791    3.6788   10.0694 H      0
   37.9075    4.6851   10.5878 H      0
   39.3924    4.6343   11.5650 H      0
   36.4372    2.8686   12.9110 H      0
   36.2406    3.6903   11.3463 H      0
   36.3277    1.9154   11.4137 H      0
   40.9516    2.7853   11.5864 H      0
   37.4079    0.6993   13.1704 H      0
   38.8672   -1.0599   14.1528 H      0
   41.3540   -5.7512   12.2564 H      0
   38.3538   -9.1527   12.3555 H      0
   41.9700   -3.7713   13.1794 H      0
   42.4137    1.0346   12.5788 H      0
   40.1033   -2.2510   15.1076 H      0
   38.8075   -7.0453   13.4028 H      0
   41.9819   -1.8682   16.6969 H      0
   41.5899   -3.5985   16.5746 H      0
   43.0150   -2.9480   15.7329 H      0
   40.2890  -10.5722   11.0221 H      0
  1  4  1
  2 18  2
  3 12  2
  4 18  1
  5  9  1
  5 21  1
  5 22  1
  6  7  4
  6 11  4
  6 12  1
  7  8  4
  8  9  4
  9 10  4
 10 11  4
 12 13  1
 13 14  1
 13 19  1
 14 15  2
 15 16  1
 15 20  1
 16 17  2
 17 18  1
 20 23  1
 20 24  1
 20 25  1
 21 26  1
 21 27  1
 21 28  1
 22 29  1
 22 30  1
 22 31  1
  8 32  1
 10 33  1
 11 34  1
 16 35  1
  4 36  1
 14 37  1
  7 38  1
 13 39  1
 17 40  1
 19 41  1
 19 42  1
 19 43  1
  1 44  1
M  END
$$$$
