A:MTX164
  --CCDC--012419    3D                              

 53 55  0  0  0  0  0  0  0  0999 V2000
   46.1320    2.1970  -18.4125 N      0
   46.9310    1.1100  -18.4625 C      0
   48.0891    1.1640  -17.7776 N      0
   46.5771    0.0110  -19.1925 N      0
   45.4090   -0.0170  -19.9035 C      0
   45.0980   -1.1100  -20.5575 N      0
   44.6139    1.0860  -19.8885 C      0
   43.4599    1.0890  -20.6375 N      0
   42.6558    2.2000  -20.6055 C      0
   42.9768    3.3450  -19.8785 C      0
   44.1689    3.3480  -19.1405 N      0
   44.9629    2.2060  -19.1555 C      0
   41.3718    2.1400  -21.4245 C      0
   40.7178    3.4400  -21.5735 N      0
   39.3966    3.5950  -20.9175 C      0
   42.4040    6.5420  -23.8584 C      0
   41.1949    6.7370  -23.2034 C      0
   40.6268    5.7200  -22.4634 C      0
   41.2918    4.4990  -22.3474 C      0
   42.5149    4.3420  -22.9954 C      0
   43.0470    5.3040  -23.8104 C      0
   43.0850    7.6029  -24.6104 C      0
   42.3800    8.6529  -25.1774 O      0
   44.4121    7.5149  -24.6654 N      0
   45.2442    8.3639  -25.4694 C      0
   46.1713    7.5059  -26.3013 C      0
   46.5303    6.3740  -25.8573 O      0
   46.5944    7.9459  -27.3993 O      0
   46.1253    9.2859  -24.6164 C      0
   45.2832   10.2369  -23.7674 C      0
   44.5041   11.2829  -24.5714 C      0
   43.7931   12.1549  -23.9914 O      0
   44.5432   11.3079  -25.8193 O      0
   44.8646    6.8016  -24.1026 H      0
   44.2362   -1.1538  -21.0919 H      0
   45.7190   -1.9123  -20.5293 H      0
   48.7214    0.3701  -17.7863 H      0
   48.3297    1.9986  -17.2525 H      0
   40.6912    7.6999  -23.2743 H      0
   43.9412    5.1104  -24.4011 H      0
   39.5029    3.4365  -19.8453 H      0
   39.0162    4.5989  -21.1001 H      0
   38.7008    2.8633  -21.3253 H      0
   46.7655    9.8717  -25.2743 H      0
   46.7423    8.6761  -23.9581 H      0
   39.6659    5.8695  -21.9733 H      0
   42.3198    4.2134  -19.8836 H      0
   43.0699    3.4167  -22.8475 H      0
   40.6792    1.4594  -20.9315 H      0
   41.6119    1.7585  -22.4158 H      0
   44.6195    8.9662  -26.1273 H      0
   45.9479   10.7603  -23.0817 H      0
   44.5689    9.6435  -23.1985 H      0
  1  2  4
  1 12  4
  2  3  1
  2  4  4
  4  5  4
  5  6  1
  5  7  4
  7  8  4
  7 12  4
  8  9  4
  9 10  4
  9 13  1
 10 11  4
 11 12  4
 13 14  1
 14 15  1
 14 19  1
 16 17  4
 16 21  4
 16 22  1
 17 18  4
 18 19  4
 19 20  4
 20 21  4
 22 23  2
 22 24  1
 24 25  1
 25 26  1
 25 29  1
 26 27  4
 26 28  4
 29 30  1
 30 31  1
 31 32  4
 31 33  4
 24 34  1
  6 35  1
  6 36  1
  3 37  1
  3 38  1
 17 39  1
 21 40  1
 15 41  1
 15 42  1
 15 43  1
 29 44  1
 29 45  1
 18 46  1
 10 47  1
 20 48  1
 13 49  1
 13 50  1
 25 51  1
 30 52  1
 30 53  1
M  END
$$$$
