R:NNO550
  --CCDC--012419    3D                              

 15 15  0  0  0  0  0  0  0  0999 V2000
  -37.4915  -14.0956   18.6989 N      0
  -36.8616  -14.9256   19.5209 C      0
  -36.8949  -14.7659   20.9215 C      0
  -37.6118  -13.6701   21.4417 C      0
  -38.2730  -12.8173   20.5696 C      0
  -38.1828  -13.0751   19.1885 C      0
  -36.2011  -15.7368   21.8794 C      0
  -35.5582  -16.6868   21.4546 O      0
  -36.2249  -15.5692   23.1072 O      0
  -38.7934  -12.2927   18.3958 O      0
  -37.4390  -14.3048   17.4407 O      0
  -36.3001  -15.7581   19.0995 H      0
  -37.6465  -13.4946   22.5160 H      0
  -38.8467  -11.9706   20.9436 H      0
  -37.8271  -15.1958   17.2368 H      0
  1  2  1
  1  6  1
  1 11  1
  2  3  2
  3  4  1
  3  7  1
  4  5  2
  5  6  1
  6 10  2
  7  8  4
  7  9  4
  2 12  1
  4 13  1
  5 14  1
 11 15  1
M  END
$$$$
