A:FAC300
  --CCDC--012419    3D                              

 11 10  0  0  0  0  0  0  0  0999 V2000
   13.4120   52.1247   16.4908 C      0
   13.4770   52.5567   15.1328 O      0
   13.7090   50.7377   16.5118 O      0
   14.4100   52.9097   17.3188 C      0
   11.9910   52.2487   16.9628 C      0
   14.2210   52.6947   18.6687 F      0
   14.2660   54.2397   17.0128 F      0
   15.6551   52.4867   16.9858 F      0
   11.7910   51.6637   18.2027 F      0
   11.3150   51.5857   16.0348 F      0
   11.5650   53.5457   16.9628 F      0
  1  2  4
  1  3  4
  1  4  1
  1  5  1
  4  6  1
  4  7  1
  4  8  1
  5  9  1
  5 10  1
  5 11  1
M  END
$$$$
