A:CTP401
  --CCDC--021119    3D                              

 41 42  0  0  0  0  0  0  0  0999 V2000
  -10.6706   31.2465   53.3880 N      0
   -9.7216   30.7765   54.2729 C      0
   -8.7766   29.9645   53.7230 N      0
   -8.6686   29.5715   52.3980 C      0
   -9.7036   30.1045   51.5851 C      0
  -10.6216   30.8975   52.0660 C      0
   -9.6856   31.0545   55.4519 O      0
   -7.7497   28.8335   52.0640 N      0
  -11.7575   32.1225   53.8470 C      0
  -11.5985   33.5595   53.4140 C      0
  -10.8406   34.2995   54.3779 O      0
  -13.0465   34.0575   53.5110 C      0
  -13.8164   32.8455   53.0180 C      0
  -12.9755   31.6985   53.2710 O      0
  -13.3745   34.4005   54.8679 O      0
  -14.3154   32.8605   51.5940 C      0
  -13.2285   32.8315   50.6551 O      0
  -13.3615   33.7115   49.3181 P      0
  -13.6164   35.1276   49.5741 O      5
  -14.3714   33.2215   48.3542 O      5
  -11.8215   33.6005   48.7412 O      0
  -10.5816   34.3915   49.2541 P      0
   -9.5086   33.4815   49.7461 O      5
  -11.0495   35.2366   50.4061 O      5
   -9.9456   35.3666   48.1082 O      0
  -10.1266   35.2026   46.4842 P      0
  -10.9096   33.9795   46.1083 O      5
   -8.7236   35.1016   45.9793 O      5
  -10.7596   36.3916   45.8693 O      5
   -9.9399   33.8925   54.4741 H      0
  -11.8311   32.0745   54.9324 H      0
  -11.3766   31.2962   51.3901 H      0
  -12.7658   35.1185   55.1842 H      0
  -13.2053   34.9086   52.8503 H      0
  -14.6911   32.7441   53.6588 H      0
  -14.8983   33.7662   51.4328 H      0
  -14.9471   31.9885   51.4312 H      0
   -7.6609   28.5394   51.0966 H      0
   -7.0771   28.5160   52.7547 H      0
   -9.7322   29.8436   50.5281 H      0
  -11.1934   33.6492   52.4071 H      0
  1  2  1
  1  6  1
  1  9  1
  2  3  1
  2  7  2
  3  4  2
  4  5  1
  4  8  1
  5  6  2
  9 10  1
  9 14  1
 10 11  1
 10 12  1
 12 13  1
 12 15  1
 13 14  1
 13 16  1
 16 17  1
 17 18  1
 18 19  4
 18 20  4
 18 21  1
 21 22  1
 22 23  4
 22 24  4
 22 25  1
 25 26  1
 26 27  4
 26 28  4
 26 29  4
 11 30  1
  9 31  1
  6 32  1
 15 33  1
 12 34  1
 13 35  1
 16 36  1
 16 37  1
  8 38  1
  8 39  1
  5 40  1
 10 41  1
M  CHG  7  19  -1  20  -1  23  -1  24  -1  27  -1  28  -1  29  -1
M  END
$$$$
