A:NAG510
  --CCDC--021119    3D                              

119123  0  0  0  0  0  0  0  0999 V2000
    0.2020   13.1428   38.3832 C      0
   -1.2330   13.3968   37.9312 C      0
   -1.9520   14.2998   38.9252 C      0
   -1.8440   13.7278   40.3372 C      0
   -0.3800   13.4428   40.6932 C      0
   -0.2380   12.7478   42.0331 C      0
   -1.7950   13.3508   35.5693 C      0
   -1.8900   11.8298   35.6173 C      0
   -1.2410   13.9858   36.6033 N      0
   -3.3189   14.4138   38.5582 O      0
   -2.3950   14.6748   41.2682 O      0
    0.2140   12.5768   39.7022 O      0
   -0.6750   11.3988   41.9571 O      0
   -2.1090   13.9398   34.5313 O      0
   -3.4999   14.2608   41.9901 C      0
   -3.5519   15.0378   43.3101 C      0
   -4.7809   14.6308   44.0981 C      0
   -6.0559   14.7378   43.2371 C      0
   -5.8829   14.0678   41.8572 C      0
   -7.0289   14.3788   40.9182 C      0
   -1.4890   15.7807   44.3431 C      0
   -1.9750   17.2037   44.1221 C      0
   -2.3580   14.7968   44.1081 N      0
   -4.8829   15.4778   45.2341 O      0
   -7.1479   14.1108   43.9361 O      0
   -4.6759   14.5358   41.2132 O      0
   -6.7279   15.5137   40.1272 O      0
   -0.3480   15.5847   44.7981 O      0
   -7.8268   14.9008   44.8471 C      0
   -9.3238   14.5988   44.7831 C      0
  -10.0428   15.4298   45.8471 C      0
   -9.4378   15.1868   47.2310 C      0
   -7.9228   15.4128   47.1860 C      0
   -7.2629   15.0388   48.4970 C      0
   -9.5478   13.1868   45.0241 O      0
  -11.4508   15.1198   45.8561 O      0
  -10.0288   16.0677   48.1770 O      0
   -7.3249   14.5948   46.1541 O      0
   -5.8399   14.9058   48.3160 O      0
  -12.3077   16.2147   45.8621 C      0
  -13.7717   15.7567   45.9581 C      0
  -14.3347   15.1908   44.6381 C      0
  -13.8887   15.9797   43.4021 C      0
  -12.3917   16.2597   43.4641 C      0
  -11.9008   17.0937   42.2981 C      0
  -14.5987   16.8487   46.4321 O      0
  -15.7727   15.1658   44.6981 O      0
  -14.1887   15.2378   42.2281 O      0
  -12.0848   16.9887   44.6711 O      0
  -11.8748   18.4747   42.6301 O      0
   -5.1539   14.3408   49.3800 C      0
   -3.8219   15.0648   49.5980 C      0
   -2.8139   14.7808   48.4750 C      0
   -2.7499   13.2968   48.1020 C      0
   -4.1449   12.6928   47.9370 C      0
   -4.0869   11.1878   47.7480 C      0
   -3.2599   14.6988   50.8850 O      0
   -1.5050   15.2258   48.8770 O      0
   -2.0270   13.1438   46.8910 O      0
   -4.9459   12.9418   49.1120 O      0
   -3.8419   10.5218   48.9800 O      0
    0.1693   14.3827   40.7197 H      0
   -3.7394   13.5142   38.5641 H      0
  -11.2658   18.6183   43.4012 H      0
   -2.4123   12.8005   40.3918 H      0
   -1.1058   13.4953   47.0089 H      0
   -9.6355   14.1585   47.5304 H      0
   -5.9109   15.3365   39.5913 H      0
   -4.5710   10.7320   49.6206 H      0
   -2.1856   13.8718   44.4888 H      0
    0.7486   14.0846   38.3911 H      0
    0.6801   12.4514   37.6909 H      0
   -0.8384   13.2752   42.7729 H      0
    0.8083   12.7665   42.3346 H      0
   -4.9661   16.4216   44.9369 H      0
   -2.8235   17.4030   44.7749 H      0
   -1.1704   17.9015   44.3494 H      0
   -2.2792   17.3262   43.0837 H      0
  -16.1144   16.0882   44.8340 H      0
   -1.7564   12.4427   37.8895 H      0
   -9.7051   14.8632   43.7979 H      0
   -0.1285   10.9111   41.2866 H      0
  -13.8189   14.9628   46.7019 H      0
  -11.8537   15.3130   43.4747 H      0
  -12.5666   16.9448   41.4494 H      0
  -10.8948   16.7735   42.0309 H      0
   -7.6710   14.0923   48.8484 H      0
   -7.4609   15.8155   49.2342 H      0
   -7.6537   15.9523   44.6233 H      0
   -7.7237   16.4617   46.9716 H      0
   -0.8174   14.8969   36.4596 H      0
  -11.0078   15.9055   48.2138 H      0
   -3.6153   16.1019   43.0876 H      0
   -3.4312   13.1928   42.1919 H      0
   -9.2013   12.9453   45.9228 H      0
   -5.7588   14.4397   50.2801 H      0
   -4.0193   16.1357   49.6097 H      0
  -13.9822   14.1659   44.5312 H      0
   -3.1134   15.3448   47.5929 H      0
   -4.6635   13.6010   44.4323 H      0
   -2.2272   12.7596   48.8920 H      0
  -15.1672   15.0754   42.1802 H      0
   -7.9267   14.5766   41.5018 H      0
   -7.2006   13.5232   40.2666 H      0
   -4.6295   13.1433   47.0720 H      0
   -3.2861   10.9485   47.0500 H      0
   -5.0372   10.8444   47.3419 H      0
   -9.9238   16.4835   45.5995 H      0
  -12.0779   16.8332   46.7285 H      0
   -3.1060   13.7181   50.9121 H      0
   -5.8176   12.9891   41.9922 H      0
  -14.4264   16.9262   43.3715 H      0
   -2.4846   11.5303   36.4790 H      0
   -2.3629   11.4667   34.7060 H      0
   -0.8903   11.4061   35.7011 H      0
   -1.2286   14.7415   49.6987 H      0
   -6.2921   15.7905   43.0891 H      0
   -1.4941   15.2876   38.9050 H      0
  -14.5344   17.6114   45.7994 H      0
  1  2  1
  1 12  1
  2  3  1
  2  9  1
  3  4  1
  3 10  1
  4  5  1
  4 11  1
  5  6  1
  5 12  1
  6 13  1
  7  8  1
  7  9  1
  7 14  2
 11 15  1
 15 16  1
 15 26  1
 16 17  1
 16 23  1
 17 18  1
 17 24  1
 18 19  1
 18 25  1
 19 20  1
 19 26  1
 20 27  1
 21 22  1
 21 23  1
 21 28  2
 25 29  1
 29 30  1
 29 38  1
 30 31  1
 30 35  1
 31 32  1
 31 36  1
 32 33  1
 32 37  1
 33 34  1
 33 38  1
 34 39  1
 36 40  1
 39 51  1
 40 41  1
 40 49  1
 41 42  1
 41 46  1
 42 43  1
 42 47  1
 43 44  1
 43 48  1
 44 45  1
 44 49  1
 45 50  1
 51 52  1
 51 60  1
 52 53  1
 52 57  1
 53 54  1
 53 58  1
 54 55  1
 54 59  1
 55 56  1
 55 60  1
 56 61  1
  5 62  1
 10 63  1
 50 64  1
  4 65  1
 59 66  1
 32 67  1
 27 68  1
 61 69  1
 23 70  1
  1 71  1
  1 72  1
  6 73  1
  6 74  1
 24 75  1
 22 76  1
 22 77  1
 22 78  1
 47 79  1
  2 80  1
 30 81  1
 13 82  1
 41 83  1
 44 84  1
 45 85  1
 45 86  1
 34 87  1
 34 88  1
 29 89  1
 33 90  1
  9 91  1
 37 92  1
 16 93  1
 15 94  1
 35 95  1
 51 96  1
 52 97  1
 42 98  1
 53 99  1
 17100  1
 54101  1
 48102  1
 20103  1
 20104  1
 55105  1
 56106  1
 56107  1
 31108  1
 40109  1
 57110  1
 19111  1
 43112  1
  8113  1
  8114  1
  8115  1
 58116  1
 18117  1
  3118  1
 46119  1
M  END
$$$$
A:CL516
  --CCDC--021119    3D                              

  2  1  0  0  0  0  0  0  0  0999 V2000
    6.7789   42.8273   27.7564 Cl     0
    8.0529   42.8273   27.7564 H      0
  1  2  1
M  END
$$$$
A:CL517
  --CCDC--021119    3D                              

  2  1  0  0  0  0  0  0  0  0999 V2000
    0.9600   43.9663   31.7124 Cl     0
    2.2340   43.9663   31.7124 H      0
  1  2  1
M  END
$$$$
A:097518
  --CCDC--021119    3D                              

 52 51  0  0  0  0  0  0  0  0999 V2000
    9.2378   13.3088   24.5115 N      0
   11.0488   16.6577   24.4835 C      0
   11.1368   12.5038   22.5225 O      0
    9.3708   13.6008   25.8145 C      0
    7.7668   18.2017   29.0494 O      0
    9.4498   11.9228   24.1195 C      0
    8.2888   11.4528   23.2335 C      0
    8.1578   12.3858   22.0146 C      0
    8.5448   10.0128   22.7585 C      0
   10.7828   11.7328   23.4155 C      0
   12.7667   10.3808   23.2205 C      0
    7.9158   16.8477   28.8534 N      0
    7.6328   16.5307   27.5804 C      0
    7.1609   17.3407   26.7865 O      0
    7.9408   15.1228   27.1534 C      0
    6.7809   14.4758   26.6525 O      0
    9.0898   15.0578   26.1485 C      0
   10.3528   15.7167   26.7195 C      0
   11.4958   15.8797   25.7055 C      0
   12.6807   16.5887   26.3595 C      0
    9.6758   12.7948   26.6935 O      0
    6.9899   11.5008   24.0575 C      0
   11.4998   10.6888   23.8775 N      0
   10.7135   17.6485   24.7866 H      0
   11.8822   16.7532   23.7891 H      0
   10.2296   16.1303   23.9970 H      0
    8.6273    9.3549   23.6224 H      0
    7.7177    9.6853   22.1305 H      0
    9.4708    9.9785   22.1864 H      0
    9.0828   12.3646   21.4401 H      0
    7.3332   12.0501   21.3874 H      0
    7.9649   13.4022   22.3545 H      0
    6.4349   14.9771   25.8682 H      0
    9.0001   14.0222   23.8298 H      0
    6.8102   12.5212   24.3928 H      0
    6.1561   11.1693   23.4404 H      0
    7.0842   10.8459   24.9224 H      0
    8.1988   16.1849   29.5681 H      0
   11.1684   10.1330   24.6595 H      0
    8.7965   15.5804   25.2393 H      0
   13.4340   11.2379   23.2987 H      0
   13.2253    9.5186   23.7024 H      0
   12.5859   10.1562   22.1704 H      0
    6.8303   18.4640   28.8493 H      0
    9.4544   11.3133   25.0220 H      0
   10.7137   15.1042   27.5443 H      0
   10.0836   16.7043   27.0913 H      0
    8.2570   14.5775   28.0415 H      0
   11.8185   14.8899   25.3862 H      0
   12.3830   17.5926   26.6587 H      0
   13.0000   16.0282   27.2368 H      0
   13.5038   16.6508   25.6490 H      0
  1  4  1
  1  6  1
  2 19  1
  3 10  2
  4 17  1
  4 21  2
  5 12  1
  6  7  1
  6 10  1
  7  8  1
  7  9  1
  7 22  1
 10 23  1
 11 23  1
 12 13  1
 13 14  2
 13 15  1
 15 16  1
 15 17  1
 17 18  1
 18 19  1
 19 20  1
  2 24  1
  2 25  1
  2 26  1
  9 27  1
  9 28  1
  9 29  1
  8 30  1
  8 31  1
  8 32  1
 16 33  1
  1 34  1
 22 35  1
 22 36  1
 22 37  1
 12 38  1
 23 39  1
 17 40  1
 11 41  1
 11 42  1
 11 43  1
  5 44  1
  6 45  1
 18 46  1
 18 47  1
 15 48  1
 19 49  1
 20 50  1
 20 51  1
 20 52  1
M  END
$$$$
