A:RRC1293
  --CCDC--021119    3D                              

 52 54  0  0  0  0  0  0  0  0999 V2000
   57.5230   30.7101   29.6941 O      0
   58.5400   30.4682   30.6351 C      0
   59.7759   30.0042   29.8581 C      0
   60.9328   29.9092   30.8541 C      0
   61.5368   28.5283   31.0001 C      0
   59.3619   28.7183   29.3152 N      0
   59.1509   28.4223   28.0072 C      0
   58.7510   27.1684   27.6853 N      0
   58.5350   26.8474   26.3983 C      0
   58.1270   25.6954   25.9184 N      0
   57.8880   24.6265   26.9013 C      0
   56.3871   24.3395   26.8923 C      0
   58.8730   23.5086   26.6853 C      0
   58.0320   25.8304   24.5655 C      0
   58.7230   27.7133   25.3814 C      0
   58.4470   27.0864   24.1635 N      0
   59.3389   29.3042   27.0083 N      0
   59.1329   28.9912   25.7224 C      0
   59.2789   29.8842   24.7344 N      0
   59.3679   31.3191   24.9944 C      0
   60.7809   31.8401   25.1154 C      0
   61.1128   32.7250   26.1474 C      0
   62.4198   33.2160   26.2544 C      0
   63.3857   32.8520   25.3124 C      0
   63.0487   31.9881   24.2685 C      0
   61.7488   31.4821   24.1715 C      0
   61.4891   30.8066   23.3577 H      0
   58.1141   25.0510   27.8784 H      0
   62.6841   33.8831   27.0735 H      0
   60.3551   33.0317   26.8669 H      0
   56.0844   24.0210   25.8959 H      0
   56.1641   23.5505   27.6090 H      0
   55.8432   25.2425   27.1656 H      0
   61.9248   28.1981   30.0376 H      0
   62.3477   28.5616   31.7262 H      0
   60.7723   27.8319   31.3414 H      0
   57.6766   25.0527   23.8911 H      0
   59.8862   23.8892   26.8054 H      0
   58.6927   22.7200   27.4144 H      0
   58.7525   23.1078   25.6799 H      0
   63.7984   31.7083   23.5298 H      0
   64.3995   33.2415   25.3924 H      0
   60.5655   30.2227   31.8301 H      0
   61.7180   30.5889   30.5263 H      0
   59.3293   29.5538   23.7761 H      0
   58.8451   31.5305   25.9260 H      0
   58.8788   31.8454   24.1761 H      0
   59.2164   27.9671   29.9821 H      0
   57.3281   29.8741   29.1951 H      0
   58.2257   29.6936   31.3330 H      0
   58.7655   31.3814   31.1838 H      0
   60.0128   30.7029   29.0571 H      0
  1  2  1
  2  3  1
  3  4  1
  3  6  1
  4  5  1
  6  7  1
  7  8  4
  7 17  4
  8  9  4
  9 10  1
  9 15  4
 10 11  1
 10 14  1
 11 12  1
 11 13  1
 14 16  2
 15 16  1
 15 18  4
 17 18  4
 18 19  1
 19 20  1
 20 21  1
 21 22  4
 21 26  4
 22 23  4
 23 24  4
 24 25  4
 25 26  4
 26 27  1
 11 28  1
 23 29  1
 22 30  1
 12 31  1
 12 32  1
 12 33  1
  5 34  1
  5 35  1
  5 36  1
 14 37  1
 13 38  1
 13 39  1
 13 40  1
 25 41  1
 24 42  1
  4 43  1
  4 44  1
 19 45  1
 20 46  1
 20 47  1
  6 48  1
  1 49  1
  2 50  1
  2 51  1
  3 52  1
M  END
$$$$
