A:I3P200
  --CCDC--021119    3D                              

 33 33  0  0  0  0  0  0  0  0999 V2000
   33.7280   18.0400    3.9671 C      0
   34.2380   18.5040    5.3382 C      0
   33.2000   18.2340    6.4082 C      0
   32.8800   16.7410    6.4422 C      0
   32.3710   16.2780    5.0672 C      0
   33.4170   16.5470    3.9941 C      0
   34.6770   18.2020    2.8401 O      0
   35.4470   17.8420    5.6742 O      0
   33.7120   18.6410    7.6593 O      0
   31.9210   16.4820    7.5523 O      0
   32.1700   14.8320    5.0982 O      0
   32.9650   16.1200    2.7151 O      0
   35.0110   19.6120    2.1901 P      0
   36.2810   19.4270    1.4430 O      5
   35.1080   20.5220    3.3631 O      5
   33.7950   19.8250    1.4150 O      5
   32.2600   15.7940    8.9673 P      0
   33.2000   14.7450    8.4873 O      5
   32.9150   16.8820    9.7053 O      5
   31.0040   15.3330    9.6143 O      5
   30.9400   14.0400    4.4452 P      0
   31.2210   12.6660    4.9282 O      5
   29.7500   14.7350    5.0202 O      5
   31.1870   14.2760    3.0181 O      5
   33.8015   16.2030    6.6598 H      0
   36.1370   18.0453    4.9897 H      0
   32.8131   18.5826    3.7335 H      0
   34.3263   16.0029    4.2453 H      0
   31.4385   16.7834    4.8202 H      0
   33.6714   16.2939    2.0393 H      0
   33.9197   19.6116    7.6320 H      0
   34.4263   19.5758    5.2966 H      0
   32.2937   18.7954    6.1859 H      0
  1  2  1
  1  6  1
  1  7  1
  2  3  1
  2  8  1
  3  4  1
  3  9  1
  4  5  1
  4 10  1
  5  6  1
  5 11  1
  6 12  1
  7 13  1
 10 17  1
 11 21  1
 13 14  4
 13 15  4
 13 16  4
 17 18  4
 17 19  4
 17 20  4
 21 22  4
 21 23  4
 21 24  4
  4 25  1
  8 26  1
  1 27  1
  6 28  1
  5 29  1
 12 30  1
  9 31  1
  2 32  1
  3 33  1
M  CHG  8  14  -1  15  -1  16  -1  18  -1  19  -1  20  -1  22  -1  23  -1
M  CHG  1  24  -1
M  END
$$$$
