A:TSN800
  --CCDC--021119    3D                              

 44 44  0  0  0  0  0  0  0  0999 V2000
   47.2147   -0.4040   12.0726 O      0
   45.6307    0.8080   10.2235 O      0
   40.5605   -0.6150    5.5463 O      0
   45.9187   -0.8560   11.7096 N      0
   35.7146   -4.9801    4.8272 N      0
   38.6436   -1.9690    5.9653 C      0
   38.7155   -2.6311    4.6492 C      0
   37.7695   -3.6091    4.2772 C      0
   36.6926   -3.9871    5.1963 C      0
   36.6246   -3.3291    6.5083 C      0
   37.5666   -2.3531    6.8843 C      0
   39.6636   -0.9180    6.3473 C      0
   39.6047   -0.2170    7.7214 C      0
   41.0077    0.0870    8.2434 C      0
   41.6777   -0.6290    9.1865 C      0
   43.0327   -0.1350    9.5325 C      0
   43.8457   -0.7270   10.4555 C      0
   45.1817   -0.2010   10.7775 C      0
   38.8167    1.0970    7.6164 C      0
   41.0747   -1.8740    9.8605 C      0
   35.7625   -5.6521    3.5112 C      0
   34.6146   -5.3641    5.7553 C      0
   34.0087   -4.4882    5.9822 H      0
   33.9922   -6.1243    5.2856 H      0
   35.0388   -5.7607    6.6765 H      0
   36.7084   -6.1818    3.4083 H      0
   34.9394   -6.3611    3.4354 H      0
   35.6750   -4.9085    2.7205 H      0
   43.4935   -1.6192   10.9712 H      0
   43.4008    0.7525    9.0199 H      0
   40.8531   -2.6251    9.1037 H      0
   41.7874   -2.2800   10.5769 H      0
   40.1571   -1.5982   10.3779 H      0
   37.8022    0.8862    7.2812 H      0
   38.7837    1.5795    8.5921 H      0
   39.3053    1.7572    6.9013 H      0
   47.1540    0.5184   12.4353 H      0
   39.5100   -2.3611    3.9551 H      0
   45.5367   -1.6840   12.1553 H      0
   37.4956   -1.8804    7.8629 H      0
   35.8310   -3.6015    7.2025 H      0
   37.8400   -4.0862    3.3008 H      0
   41.5165    0.9534    7.8236 H      0
   39.1008   -0.8733    8.4294 H      0
  1  4  1
  2 18  2
  3 12  2
  4 18  1
  5  9  1
  5 21  1
  5 22  1
  6  7  4
  6 11  4
  6 12  1
  7  8  4
  8  9  4
  9 10  4
 10 11  4
 12 13  1
 13 14  1
 13 19  1
 14 15  2
 15 16  1
 15 20  1
 16 17  2
 17 18  1
 22 23  1
 22 24  1
 22 25  1
 21 26  1
 21 27  1
 21 28  1
 17 29  1
 16 30  1
 20 31  1
 20 32  1
 20 33  1
 19 34  1
 19 35  1
 19 36  1
  1 37  1
  7 38  1
  4 39  1
 11 40  1
 10 41  1
  8 42  1
 14 43  1
 13 44  1
M  END
$$$$
A:TSN801
  --CCDC--021119    3D                              

 44 44  0  0  0  0  0  0  0  0999 V2000
   39.4008  -10.1712   10.8315 O      0
   40.9548   -7.9952   11.0375 O      0
   42.9009   -1.1280   13.8567 O      0
   39.1579   -9.1092   11.7376 N      0
   38.1779    2.9081   11.7026 N      0
   40.7659   -0.1700   13.4447 C      0
   41.3339    0.9620   12.6996 C      0
   40.5039    1.9590   12.1366 C      0
   39.0499    1.8920   12.2856 C      0
   38.4869    0.7660   13.0396 C      0
   39.3150   -0.2350   13.6007 C      0
   41.6789   -1.2330   14.0207 C      0
   41.1270   -2.4541   14.7967 C      0
   41.1469   -3.6981   13.8887 C      0
   40.2339   -4.7251   13.8807 C      0
   40.4829   -5.8341   12.9046 C      0
   39.6879   -6.9522   12.7686 C      0
   39.9808   -8.0402   11.7906 C      0
   41.9920   -2.7381   16.0418 C      0
   39.0270   -4.7511   14.8267 C      0
   38.7258    4.0531   10.9295 C      0
   36.6959    2.8411   11.8536 C      0
   38.3538   -9.1527   12.3555 H      0
   39.2791    3.6788   10.0694 H      0
   37.9075    4.6851   10.5878 H      0
   39.3924    4.6343   11.5650 H      0
   42.4137    1.0346   12.5788 H      0
   41.3540   -5.7512   12.2564 H      0
   38.8672   -1.0599   14.1528 H      0
   41.9700   -3.7713   13.1794 H      0
   40.1033   -2.2510   15.1076 H      0
   38.8075   -7.0453   13.4028 H      0
   41.9819   -1.8682   16.6969 H      0
   41.5899   -3.5985   16.5746 H      0
   43.0150   -2.9480   15.7329 H      0
   38.4062   -3.8745   14.6474 H      0
   38.4433   -5.6525   14.6458 H      0
   39.3745   -4.7448   15.8588 H      0
   37.4079    0.6993   13.1704 H      0
   40.9516    2.7853   11.5864 H      0
   40.2890  -10.5722   11.0221 H      0
   36.4372    2.8686   12.9110 H      0
   36.2406    3.6903   11.3463 H      0
   36.3277    1.9154   11.4137 H      0
  1  4  1
  2 18  2
  3 12  2
  4 18  1
  5  9  1
  5 21  1
  5 22  1
  6  7  4
  6 11  4
  6 12  1
  7  8  4
  8  9  4
  9 10  4
 10 11  4
 12 13  1
 13 14  1
 13 19  1
 14 15  2
 15 16  1
 15 20  1
 16 17  2
 17 18  1
  4 23  1
 21 24  1
 21 25  1
 21 26  1
  7 27  1
 16 28  1
 11 29  1
 14 30  1
 13 31  1
 17 32  1
 19 33  1
 19 34  1
 19 35  1
 20 36  1
 20 37  1
 20 38  1
 10 39  1
  8 40  1
  1 41  1
 22 42  1
 22 43  1
 22 44  1
M  END
$$$$
