A:FES601
  --CCDC--021119    3D                              

  3  2  0  0  0  0  0  0  0  0999 V2000
    8.3979    3.3690   19.7636 S      0
    9.7979    3.3690   19.7636 H      0
    7.9312    4.5121   19.1036 H      0
  1  2  1
  1  3  1
M  END
$$$$
A:FES601
  --CCDC--021119    3D                              

  3  2  0  0  0  0  0  0  0  0999 V2000
   10.3152    2.7720   22.5137 S      0
   11.7152    2.7720   22.5137 H      0
    9.8485    3.9151   21.8537 H      0
  1  2  1
  1  3  1
M  END
$$$$
A:FES602
  --CCDC--021119    3D                              

  3  2  0  0  0  0  0  0  0  0999 V2000
   14.0331    9.8729   32.5730 S      0
   15.4331    9.8729   32.5730 H      0
   13.5665   11.0160   31.9130 H      0
  1  2  1
  1  3  1
M  END
$$$$
A:FES602
  --CCDC--021119    3D                              

  3  2  0  0  0  0  0  0  0  0999 V2000
   11.2342    8.1439   33.4930 S      0
   12.6342    8.1439   33.4930 H      0
   10.7676    9.2870   32.8331 H      0
  1  2  1
  1  3  1
M  END
$$$$
B:FAD606
  --CCDC--021119    3D                              

 86 91  0  0  0  0  0  0  0  0999 V2000
   20.8782   18.2559   43.7623 P      0
   20.4852   16.8299   43.6443 O      5
   19.7702   19.2098   44.0033 O      5
   21.9273   18.3299   44.9734 O      0
   23.0913   17.5259   44.9394 C      0
   23.9964   17.7769   46.1464 C      0
   24.5904   19.0708   46.0934 O      0
   23.2435   17.6909   47.4725 C      0
   24.1126   17.0599   48.4275 O      0
   22.9956   19.1528   47.8195 C      0
   23.0247   19.3408   49.1965 O      0
   24.2225   19.8118   47.2484 C      0
   24.1875   21.2068   46.8324 N      0
   23.5294   21.7908   45.7634 C      0
   23.8803   23.0878   45.7034 N      0
   24.7794   23.3098   46.7034 C      0
   25.4645   24.4408   47.1234 C      0
   25.2434   25.6018   46.5034 N      0
   26.3256   24.3608   48.2165 N      0
   26.5066   23.1978   48.9365 C      0
   25.8376   22.0828   48.4985 N      0
   24.9945   22.1468   47.4085 C      0
   27.4794   14.0829   36.2171 N      0
   28.6753   14.0789   35.5901 C      0
   29.6453   14.5819   36.1191 O      0
   28.7802   13.5139   34.3521 N      0
   27.7401   12.9359   33.7000 C      0
   27.9140   12.4079   32.5970 O      0
   26.5252   12.9249   34.3140 C      0
   25.4441   12.3519   33.6900 N      0
   24.2042   12.3349   34.3311 C      0
   23.1361   11.7179   33.6810 C      0
   21.8942   11.7039   34.2910 C      0
   20.8202   10.9439   33.6210 C      0
   21.7123   12.2679   35.5601 C      0
   20.3614   12.3039   36.2131 C      0
   22.8024   12.8379   36.2251 C      0
   24.0613   12.9169   35.6081 C      0
   25.1844   13.5279   36.2271 N      0
   26.3913   13.5179   35.5851 C      0
   25.2115   14.1539   37.5872 C      0
   24.6045   15.5619   37.5201 C      0
   25.3694   16.4699   36.7451 O      0
   24.5167   16.0359   38.9442 C      0
   23.4907   15.1909   39.3592 O      0
   23.8687   17.4019   39.1002 C      0
   24.6286   18.4309   38.5232 O      0
   23.5808   17.7349   40.5442 C      0
   23.0608   19.0498   40.5002 O      0
   21.5979   19.2318   41.0793 P      0
   21.2169   20.6748   41.0693 O      5
   20.5988   18.3959   40.3492 O      5
   21.8650   18.6899   42.5553 O      0
   24.4931   17.7000   41.1379 H      0
   22.8496   17.0441   40.9615 H      0
   27.1518   23.1663   49.8133 H      0
   25.5463   11.9426   32.7668 H      0
   23.2774   11.2533   32.7063 H      0
   23.7750   14.2459   39.2484 H      0
   22.6733   13.2255   37.2346 H      0
   24.7393   18.2559   37.5520 H      0
   19.9908   11.2874   36.3367 H      0
   20.4422   12.7819   37.1883 H      0
   19.6711   12.8685   35.5882 H      0
   27.3826   14.4954   37.1394 H      0
   23.6002   15.4970   37.1040 H      0
   26.2414   14.2198   37.9349 H      0
   24.6332   13.5428   38.2786 H      0
   22.9140   17.3704   38.5773 H      0
   25.7373   26.4375   46.7998 H      0
   24.5814   25.6490   45.7355 H      0
   25.4409   16.1319   35.8141 H      0
   24.9377   17.6022   48.5331 H      0
   25.4414   15.9182   39.5072 H      0
   21.1136    9.8986   33.5364 H      0
   19.9043   11.0177   34.2056 H      0
   20.6504   11.3549   32.6269 H      0
   29.6859   13.5268   33.8940 H      0
   25.0240   19.7052   47.9779 H      0
   22.8432   21.2853   45.0855 H      0
   22.0783   19.5323   47.3716 H      0
   24.7891   17.0302   46.1477 H      0
   23.6472   17.7504   44.0303 H      0
   22.7948   16.4780   44.9341 H      0
   22.3082   17.1438   47.3639 H      0
   23.9138   19.0732   49.5484 H      0
  1  2  4
  1  3  4
  1  4  1
  1 53  1
  4  5  1
  5  6  1
  6  7  1
  6  8  1
  7 12  1
  8  9  1
  8 10  1
 10 11  1
 10 12  1
 12 13  1
 13 14  1
 13 22  1
 14 15  2
 15 16  1
 16 17  4
 16 22  4
 17 18  1
 17 19  4
 19 20  4
 20 21  4
 21 22  4
 23 24  1
 23 40  1
 24 25  2
 24 26  1
 26 27  1
 27 28  2
 27 29  1
 29 30  1
 29 40  2
 30 31  1
 31 32  4
 31 38  4
 32 33  4
 33 34  1
 33 35  4
 35 36  1
 35 37  4
 37 38  4
 38 39  1
 39 40  1
 39 41  1
 41 42  1
 42 43  1
 42 44  1
 44 45  1
 44 46  1
 46 47  1
 46 48  1
 48 49  1
 49 50  1
 50 51  4
 50 52  4
 50 53  1
 48 54  1
 48 55  1
 20 56  1
 30 57  1
 32 58  1
 45 59  1
 37 60  1
 47 61  1
 36 62  1
 36 63  1
 36 64  1
 23 65  1
 42 66  1
 41 67  1
 41 68  1
 46 69  1
 18 70  1
 18 71  1
 43 72  1
  9 73  1
 44 74  1
 34 75  1
 34 76  1
 34 77  1
 26 78  1
 12 79  1
 14 80  1
 10 81  1
  6 82  1
  5 83  1
  5 84  1
  8 85  1
 11 86  1
M  CHG  4   2  -1   3  -1  51  -1  52  -1
M  END
$$$$
C:LUZ1
  --CCDC--021119    3D                              

 16 17  0  0  0  0  0  0  0  0999 V2000
    8.6411  -20.0558   22.0777 N      0
    8.4102  -21.3408   22.4607 C      0
    9.3150  -19.7818   20.9496 C      0
    7.7873  -21.5968   23.5187 O      0
    8.8401  -22.3838   21.7367 N      0
    9.5120  -22.1748   20.6006 C      0
    9.8459  -23.1838   19.9656 O      0
    9.7859  -20.8568   20.1636 C      0
   10.4718  -20.6128   19.0126 N      0
   10.6908  -19.3238   18.6486 C      0
   10.2368  -18.2599   19.4606 C      0
    9.5460  -18.4919   20.6016 N      0
   11.2210  -19.1074   17.7224 H      0
    8.6555  -23.3311   22.0509 H      0
    8.2988  -19.2932   22.6534 H      0
   10.4468  -17.2336   19.1628 H      0
  1  2  1
  1  3  1
  2  4  2
  2  5  1
  3  8  4
  3 12  4
  5  6  1
  6  7  2
  6  8  1
  8  9  4
  9 10  4
 10 11  4
 11 12  4
 10 13  1
  5 14  1
  1 15  1
 11 16  1
M  END
$$$$
C:MTE1326
  --CCDC--021119    3D                              

 32 34  0  0  0  0  0  0  0  0999 V2000
    8.7787   -4.2870   17.4345 N      0
    8.3638   -3.4930   18.4396 C      0
    8.1667   -2.2180   18.0676 N      0
    8.1729   -3.9270   19.7196 N      0
    8.3889   -5.2170   20.0616 C      0
    8.2440   -5.6650   21.2226 O      0
    9.1018   -7.4779   19.2156 N      0
    9.9547   -8.1869   18.2716 C      0
    9.4396   -7.8739   16.8795 C      0
    9.4496   -6.4509   16.6625 N      0
    8.8538   -6.1510   19.0016 C      0
    9.0267   -5.6090   17.6555 C      0
    9.8537   -9.6739   18.4346 C      0
   10.7789  -10.3599   19.7166 S      0
    8.9907  -10.3369   17.5775 C      0
    8.8856  -11.9749   17.1685 S      0
    7.9016   -9.6859   16.7815 C      0
    8.0766   -8.2779   16.8275 O      0
    6.5817  -10.2379   17.3335 C      0
    5.4596  -10.0729   16.4605 O      0
    5.2414  -10.6529   14.9585 P      0
    5.1535  -12.1139   15.3015 O      5
    6.4104  -10.0869   14.1574 O      5
    3.9554   -9.9609   14.4994 O      5
    6.3632   -9.7255   18.2692 H      0
    6.7110  -11.3023   17.5242 H      0
    7.8631   -3.2691   20.4277 H      0
    7.9984  -10.0074   15.7456 H      0
   10.0280   -8.3882   16.1211 H      0
    7.8530   -1.5334   18.7481 H      0
    8.3316   -1.9387   17.1058 H      0
   10.9890   -7.8625   18.3759 H      0
  1  2  2
  1 12  1
  2  3  1
  2  4  1
  4  5  1
  5  6  2
  5 11  1
  7  8  1
  7 11  2
  8  9  1
  8 13  1
  9 10  1
  9 18  1
 10 12  2
 11 12  1
 13 14  2
 13 15  1
 15 16  2
 15 17  1
 17 18  1
 17 19  1
 19 20  1
 20 21  1
 21 22  4
 21 23  4
 21 24  4
 19 25  1
 19 26  1
  4 27  1
 17 28  1
  9 29  1
  3 30  1
  3 31  1
  8 32  1
M  CHG  3  22  -1  23  -1  24  -1
M  END
$$$$
C:MOS1327
  --CCDC--021119    3D                              

  3  2  0  0  0  0  0  0  0  0999 V2000
   10.3210  -13.0409   20.8126 S      0
   11.7210  -13.0409   20.8126 H      0
    9.8543  -11.8978   20.1527 H      0
  1  2  1
  1  3  1
M  END
$$$$
L:FES601
  --CCDC--021119    3D                              

  3  2  0  0  0  0  0  0  0  0999 V2000
  -36.3744  -12.3019   42.8443 S      0
  -34.9744  -12.3019   42.8443 H      0
  -36.8410  -11.1588   42.1843 H      0
  1  2  1
  1  3  1
M  END
$$$$
L:FES601
  --CCDC--021119    3D                              

  3  2  0  0  0  0  0  0  0  0999 V2000
  -37.5494   -9.0829   42.8273 S      0
  -36.1494   -9.0829   42.8273 H      0
  -38.0160   -7.9398   42.1673 H      0
  1  2  1
  1  3  1
M  END
$$$$
L:FES602
  --CCDC--021119    3D                              

  3  2  0  0  0  0  0  0  0  0999 V2000
  -37.6705    0.5750   51.1526 S      0
  -36.2705    0.5750   51.1526 H      0
  -38.1372    1.7181   50.4926 H      0
  1  2  1
  1  3  1
M  END
$$$$
L:FES602
  --CCDC--021119    3D                              

  3  2  0  0  0  0  0  0  0  0999 V2000
  -35.2138    1.1400   48.9955 S      0
  -33.8138    1.1400   48.9955 H      0
  -35.6804    2.2831   48.3355 H      0
  1  2  1
  1  3  1
M  END
$$$$
M:FAD606
  --CCDC--021119    3D                              

 86 91  0  0  0  0  0  0  0  0999 V2000
  -40.3735   11.9519   61.6389 P      0
  -40.3496   11.9139   60.1638 O      5
  -38.9964   11.7799   62.2239 O      5
  -41.0894   13.2699   62.1869 O      0
  -42.3534   13.6149   61.6279 C      0
  -42.8804   14.9779   62.0609 C      0
  -43.2152   14.9269   63.4249 O      0
  -41.8694   16.0909   61.9229 C      0
  -42.5844   17.2529   61.6039 O      0
  -41.3033   16.2579   63.3219 C      0
  -40.8453   17.5759   63.5729 O      0
  -42.5222   15.9169   64.1490 C      0
  -42.2741   15.3719   65.5010 N      0
  -41.6750   14.1799   65.8390 C      0
  -41.7099   14.0569   67.1751 N      0
  -42.3208   15.1529   67.6801 C      0
  -42.6097   15.5359   68.9871 C      0
  -42.6776   14.5829   69.9351 N      0
  -43.2327   16.7629   69.1681 N      0
  -43.5948   17.5999   68.1371 C      0
  -43.3229   17.1979   66.8350 N      0
  -42.6909   15.9929   66.6350 C      0
  -48.9707    6.3279   58.2338 N      0
  -50.2677    6.0000   58.4778 C      0
  -50.9006    6.7509   59.2008 O      0
  -50.8237    4.8560   57.8888 N      0
  -50.0378    4.0440   57.0647 C      0
  -50.5049    2.9990   56.5517 O      0
  -48.6939    4.4000   56.8287 C      0
  -47.8629    3.6340   56.0137 N      0
  -46.5330    4.0170   55.7917 C      0
  -45.6841    3.2680   54.9577 C      0
  -44.3461    3.6590   54.7397 C      0
  -43.5532    2.9700   53.6496 C      0
  -43.8441    4.8260   55.3437 C      0
  -42.6051    5.5160   54.8167 C      0
  -44.7210    5.5770   56.1367 C      0
  -46.0389    5.1760   56.3917 C      0
  -46.8688    5.9290   57.2188 N      0
  -48.1828    5.5570   57.4188 C      0
  -46.3848    7.1999   57.8618 C      0
  -45.6367    6.8999   59.1568 C      0
  -46.3876    6.0780   60.0268 O      0
  -45.3276    8.2049   59.8498 C      0
  -44.5297    8.7879   58.8508 O      0
  -44.4625    8.0289   61.0979 C      0
  -45.1533    7.5229   62.2469 O      0
  -43.7344    9.3309   61.4349 C      0
  -42.8523    9.0439   62.5019 O      0
  -41.2864    9.2829   62.4599 P      0
  -40.7242    8.9819   63.8210 O      5
  -40.8415    8.3309   61.4219 O      5
  -41.4464   10.8229   62.0269 O      0
  -45.5351    6.6305   62.0372 H      0
  -45.0588    8.8783   58.0154 H      0
  -44.4511   10.0935   61.7362 H      0
  -43.1739    9.6813   60.5695 H      0
  -48.5784    7.1597   58.6634 H      0
  -44.7009    6.3976   58.9160 H      0
  -46.5861    5.2149   59.5776 H      0
  -46.2259    8.7869   60.0507 H      0
  -47.2401    7.8367   58.0827 H      0
  -45.7161    7.7159   57.1743 H      0
  -43.6957    7.2976   60.8466 H      0
  -42.8866   14.8364   70.8955 H      0
  -42.5198   13.6107   69.6897 H      0
  -44.0820   18.5531   68.3368 H      0
  -41.2466   13.4606   65.1426 H      0
  -44.3643    6.5092   56.5722 H      0
  -44.0447    3.1247   52.6902 H      0
  -42.5476    3.3864   53.6137 H      0
  -43.4970    1.9031   53.8608 H      0
  -40.5071   15.5366   63.5002 H      0
  -41.5999   18.2134   63.4721 H      0
  -43.1523   16.8011   64.2332 H      0
  -42.7709    5.8213   53.7846 H      0
  -42.3918    6.3936   55.4251 H      0
  -41.7608    4.8296   54.8610 H      0
  -43.2314   17.4533   62.3301 H      0
  -48.2237    2.7917   55.5771 H      0
  -43.7684   15.2228   61.4801 H      0
  -46.0657    2.3711   54.4719 H      0
  -41.0989   15.8628   61.1879 H      0
  -43.0770   12.8585   61.9283 H      0
  -42.2578   13.6152   60.5431 H      0
  -51.7953    4.6172   58.0600 H      0
  1  2  4
  1  3  4
  1  4  1
  1 53  1
  4  5  1
  5  6  1
  6  7  1
  6  8  1
  7 12  1
  8  9  1
  8 10  1
 10 11  1
 10 12  1
 12 13  1
 13 14  1
 13 22  1
 14 15  2
 15 16  1
 16 17  4
 16 22  4
 17 18  1
 17 19  4
 19 20  4
 20 21  4
 21 22  4
 23 24  1
 23 40  1
 24 25  2
 24 26  1
 26 27  1
 27 28  2
 27 29  1
 29 30  1
 29 40  2
 30 31  1
 31 32  4
 31 38  4
 32 33  4
 33 34  1
 33 35  4
 35 36  1
 35 37  4
 37 38  4
 38 39  1
 39 40  1
 39 41  1
 41 42  1
 42 43  1
 42 44  1
 44 45  1
 44 46  1
 46 47  1
 46 48  1
 48 49  1
 49 50  1
 50 51  4
 50 52  4
 50 53  1
 47 54  1
 45 55  1
 48 56  1
 48 57  1
 23 58  1
 42 59  1
 43 60  1
 44 61  1
 41 62  1
 41 63  1
 46 64  1
 18 65  1
 18 66  1
 20 67  1
 14 68  1
 37 69  1
 34 70  1
 34 71  1
 34 72  1
 10 73  1
 11 74  1
 12 75  1
 36 76  1
 36 77  1
 36 78  1
  9 79  1
 30 80  1
  6 81  1
 32 82  1
  8 83  1
  5 84  1
  5 85  1
 26 86  1
M  CHG  4   2  -1   3  -1  51  -1  52  -1
M  END
$$$$
N:LUZ1
  --CCDC--021119    3D                              

 16 17  0  0  0  0  0  0  0  0999 V2000
  -40.4776   -7.6549   20.1296 N      0
  -40.8997   -7.6949   18.8456 C      0
  -40.9925   -8.4699   21.0496 C      0
  -40.3518   -6.8469   18.0636 O      0
  -41.8628   -8.6119   18.4396 N      0
  -42.4277   -9.4529   19.3886 C      0
  -43.3457  -10.3349   19.2326 O      0
  -41.9765   -9.3919   20.7006 C      0
  -42.5324  -10.2519   21.5957 N      0
  -42.1403  -10.1309   22.8737 C      0
  -41.1683   -9.1989   23.2427 C      0
  -40.5964   -8.3859   22.3437 N      0
  -42.1476   -8.6655   17.4668 H      0
  -40.8673   -9.1309   24.2871 H      0
  -42.5871  -10.7694   23.6344 H      0
  -39.7563   -6.9929   20.3972 H      0
  1  2  1
  1  3  1
  2  4  2
  2  5  1
  3  8  4
  3 12  4
  5  6  1
  6  7  2
  6  8  1
  8  9  4
  9 10  4
 10 11  4
 11 12  4
  5 13  1
 11 14  1
 10 15  1
  1 16  1
M  END
$$$$
N:MTE1326
  --CCDC--021119    3D                              

 32 34  0  0  0  0  0  0  0  0999 V2000
  -38.5251  -13.6769   35.0761 N      0
  -37.7291  -12.9059   35.8461 C      0
  -37.3199  -13.4589   36.9981 N      0
  -37.3961  -11.6379   35.5011 N      0
  -37.8252  -11.0759   34.3651 C      0
  -37.5712   -9.9049   34.0370 O      0
  -39.1814  -11.3599   32.3080 N      0
  -40.2925  -12.0489   31.6820 C      0
  -39.9974  -13.5519   31.7510 C      0
  -39.7733  -13.9569   33.0920 N      0
  -38.6693  -11.8619   33.4490 C      0
  -39.0032  -13.2179   33.8840 C      0
  -40.3816  -11.7559   30.2199 C      0
  -41.0836  -10.3449   29.7149 S      0
  -39.9247  -12.5989   29.2869 C      0
  -40.2259  -12.3689   27.6348 S      0
  -39.0937  -13.8099   29.6019 C      0
  -38.8085  -13.8349   30.9989 O      0
  -37.8428  -13.6719   28.7289 C      0
  -36.9128  -14.7109   28.9999 O      0
  -37.0008  -16.1059   28.2459 P      0
  -37.1580  -15.7089   26.8038 O      5
  -38.2258  -16.7569   28.8299 O      5
  -35.6878  -16.7839   28.6739 O      5
  -37.3718  -12.7112   28.9316 H      0
  -38.1337  -13.7195   27.6805 H      0
  -40.8355  -14.1093   31.3351 H      0
  -41.2295  -11.8128   32.1841 H      0
  -39.6380  -14.7108   29.3227 H      0
  -36.7188  -12.9358   37.6268 H      0
  -37.6116  -14.4003   37.2409 H      0
  -36.8031  -11.0983   36.1235 H      0
  1  2  2
  1 12  1
  2  3  1
  2  4  1
  4  5  1
  5  6  2
  5 11  1
  7  8  1
  7 11  2
  8  9  1
  8 13  1
  9 10  1
  9 18  1
 10 12  2
 11 12  1
 13 14  2
 13 15  1
 15 16  2
 15 17  1
 17 18  1
 17 19  1
 19 20  1
 20 21  1
 21 22  4
 21 23  4
 21 24  4
 19 25  1
 19 26  1
  9 27  1
  8 28  1
 17 29  1
  3 30  1
  3 31  1
  4 32  1
M  CHG  3  22  -1  23  -1  24  -1
M  END
$$$$
N:MOS1327
  --CCDC--021119    3D                              

  3  2  0  0  0  0  0  0  0  0999 V2000
  -42.5729   -8.2199   26.8028 S      0
  -41.1729   -8.2199   26.8028 H      0
  -43.0396   -7.0768   26.1429 H      0
  1  2  1
  1  3  1
M  END
$$$$
